Info: SIMULATION PARAMETERS:
Info: TIMESTEP               2
Info: NUMBER OF STEPS        0
Info: STEPS PER CYCLE        10
Info: PERIODIC CELL BASIS 1  48 0 0
Info: PERIODIC CELL BASIS 2  0 48 0
Info: PERIODIC CELL BASIS 3  0 0 48
Info: PERIODIC CELL CENTER   0 0 0
Info: WRAPPING WATERS AROUND PERIODIC BOUNDARIES ON OUTPUT.
Info: WRAPPING ALL CLUSTERS AROUND PERIODIC BOUNDARIES ON OUTPUT.
Info: FIRST LDB TIMESTEP     50
Info: LAST LDB TIMESTEP     -1
Info: HOM BACKGROUND SCALING 1
Info: PME BACKGROUND SCALING 1
Info: REMOVING PATCHES FROM PROCESSOR 0
Info: MIN ATOMS PER PATCH    40
Info: INITIAL TEMPERATURE    310
Info: CENTER OF MASS MOVING INITIALLY? NO
Info: DIELECTRIC             1
Info: EXCLUDE                SCALED ONE-FOUR
Info: 1-4 ELECTROSTATICS SCALED BY 1
Info: MODIFIED 1-4 VDW PARAMETERS WILL BE USED
Info: DCD FILENAME           current_MD_run_files.dcd
Info: DCD FREQUENCY          10000
Info: DCD FIRST STEP         10000
Info: DCD FILE WILL CONTAIN UNIT CELL DATA
Info: XST FILENAME           current_MD_run_files.xst
Info: XST FREQUENCY          10000
Info: NO VELOCITY DCD OUTPUT
Info: NO FORCE DCD OUTPUT
Info: OUTPUT FILENAME        current_MD_run_files
Info: BINARY OUTPUT FILES WILL BE USED
Info: RESTART FILENAME       current_MD_run_files.restart
Info: RESTART FREQUENCY      50000
Info: BINARY RESTART FILES WILL BE USED
Info: SWITCHING ACTIVE
Info: SWITCHING ON           10
Info: SWITCHING OFF          12
Info: PAIRLIST DISTANCE      14
Info: PAIRLIST SHRINK RATE   0.01
Info: PAIRLIST GROW RATE     0.01
Info: PAIRLIST TRIGGER       0.3
Info: PAIRLISTS PER CYCLE    2
Info: PAIRLISTS ENABLED
Info: MARGIN                 0.99
Info: HYDROGEN GROUP CUTOFF  2.5
Info: PATCH DIMENSION        17.49
Info: ENERGY OUTPUT STEPS    10000
Info: CROSSTERM ENERGY INCLUDED IN DIHEDRAL
Info: TIMING OUTPUT STEPS    10000
Info: PRESSURE OUTPUT STEPS  10000
Info: LANGEVIN DYNAMICS ACTIVE
Info: LANGEVIN TEMPERATURE   310
Info: LANGEVIN DAMPING COEFFICIENT IS 5 INVERSE PS
Info: LANGEVIN DYNAMICS NOT APPLIED TO HYDROGENS
Info: LANGEVIN PISTON PRESSURE CONTROL ACTIVE
Info:        TARGET PRESSURE IS 1.01325 BAR
Info:     OSCILLATION PERIOD IS 100 FS
Info:             DECAY TIME IS 50 FS
Info:     PISTON TEMPERATURE IS 310 K
Info:       PRESSURE CONTROL IS GROUP-BASED
Info:    INITIAL STRAIN RATE IS 0 0 0
Info:       CELL FLUCTUATION IS ANISOTROPIC
Info: PARTICLE MESH EWALD (PME) ACTIVE
Info: PME TOLERANCE               1e-06
Info: PME EWALD COEFFICIENT       0.257952
Info: PME INTERPOLATION ORDER     4
Info: PME GRID DIMENSIONS         48 48 48
Info: PME MAXIMUM GRID SPACING    1
Info: FULL ELECTROSTATIC EVALUATION FREQUENCY      2
Info: USING VERLET I (r-RESPA) MTS SCHEME.
Info: C1 SPLITTING OF LONG RANGE ELECTROSTATICS
Info: PLACING ATOMS IN PATCHES BY HYDROGEN GROUPS
Info: RIGID BONDS TO HYDROGEN : ALL
Info:         ERROR TOLERANCE : 1e-08
Info:          MAX ITERATIONS : 100
Info: RIGID WATER USING SETTLE ALGORITHM
Info: RANDOM NUMBER SEED     1420687057
Info: USE HYDROGEN BONDS?    NO
Info: COORDINATE PDB         ../../InputFiles/example.pdb
Info: STRUCTURE FILE         ../../InputFiles/example.psf
Info: PARAMETER file: CHARMM format!
Info: PARAMETERS             ../../InputFiles/Parameters/par_all27_prot_na.prm
Info: USING ARITHMETIC MEAN TO COMBINE L-J SIGMA PARAMETERS
Info: SUMMARY OF PARAMETERS:
Info: 258 BONDS
Info: 666 ANGLES
Info: 1134 DIHEDRAL
Info: 70 IMPROPER
Info: 6 CROSSTERM
Info: 164 VDW
Info: 0 VDW_PAIRS
Info: 0 NBTHOLE_PAIRS
Info: STRUCTURE SUMMARY:
Info: 10315 ATOMS
Info: 7285 BONDS
Info: 5281 ANGLES
Info: 3293 DIHEDRALS
Info: 204 IMPROPERS
Info: 74 CROSSTERMS
Info: 0 EXCLUSIONS
Info: 9701 RIGID BONDS
Info: 21244 DEGREES OF FREEDOM
Info: 3638 HYDROGEN GROUPS
Info: 4 ATOMS IN LARGEST HYDROGEN GROUP
Info: 3638 MIGRATION GROUPS
Info: 4 ATOMS IN LARGEST MIGRATION GROUP
Info: TOTAL MASS = 63394.1 amu
Info: TOTAL CHARGE = 1.00955e-06 e
Info: MASS DENSITY = 0.951884 g/cm^3
Info: ATOM DENSITY = 0.0932708 atoms/A^3
Info: REMOVING COM VELOCITY -0.00165981 -0.116153 0.0881468
Info: NONBONDED TABLE R-SQUARED SPACING: 0.0625
Info: NONBONDED TABLE SIZE: 769 POINTS
Info: Building spanning tree ... send: 1 recv: 0 with branch factor 9
TCL: Minimizing for 5000 steps
Info: build node-aware spanning tree with send: 1, recv: 0 with branch factor 9
Info: build node-aware spanning tree with send: 1, recv: 0 with branch factor 9
Info: build node-aware spanning tree with send: 1, recv: 0 with branch factor 9
Info: build node-aware spanning tree with send: 1, recv: 0 with branch factor 9
Info: build node-aware spanning tree with send: 1, recv: 0 with branch factor 9
Info: build node-aware spanning tree with send: 1, recv: 0 with branch factor 9
ETITLE: TS BOND ANGLE DIHED IMPRP ELECT VDW BOUNDARY MISC KINETIC TOTAL TEMP POTENTIAL TOTAL3 TEMPAVG PRESSURE GPRESSURE VOLUME PRESSAVG GPRESSAVG
ENERGY: 0 3088.5033 1499.3301 263.8206 10.6933 -30848.5032 336586487.2282 0.0000 0.0000 0.0000 336560501.0723 -0.0000 336560501.0723 336560501.0723 0.0000 846098063.7249 846104120.5607 110592.0000 846098063.7249 846104120.5607
ENERGY: 1000 1424.7190 1098.2018 222.6798 5.9098 -49323.5650 4798.3166 0.0000 0.0000 0.0000 -41773.7380 -0.0000 -41773.7380 -41773.7380 0.0000 -5380.4870 -5363.2942 110592.0000 -5380.4870 -5363.2942
ENERGY: 2000 1463.0145 1109.6590 216.2418 5.8071 -50307.9735 5143.9610 0.0000 0.0000 0.0000 -42369.2901 -0.0000 -42369.2901 -42369.2901 0.0000 -4943.6211 -4966.5178 110592.0000 -4943.6211 -4966.5178
ENERGY: 3000 1483.6266 1113.9510 212.4703 6.1018 -50771.7607 5327.2114 0.0000 0.0000 0.0000 -42628.3996 -0.0000 -42628.3996 -42628.3996 0.0000 -4691.8510 -4701.8256 110592.0000 -4691.8510 -4701.8256
ENERGY: 4000 1495.0750 1116.6144 207.3613 5.9570 -50991.7856 5410.2984 0.0000 0.0000 0.0000 -42756.4795 -0.0000 -42756.4795 -42756.4795 0.0000 -4605.4872 -4594.3091 110592.0000 -4605.4872 -4594.3091
ENERGY: 5000 1500.6803 1119.8583 205.5801 5.8763 -51113.2621 5460.1026 0.0000 0.0000 0.0000 -42821.1644 -0.0000 -42821.1644 -42821.1644 0.0000 -4531.5007 -4525.8627 110592.0000 -4531.5007 -4525.8627
TCL: Running for 50000 steps
Info: build node-aware spanning tree with send: 1, recv: 0 with branch factor 9
Info: build node-aware spanning tree with send: 1, recv: 0 with branch factor 9
Info: build node-aware spanning tree with send: 1, recv: 0 with branch factor 9
Info: build node-aware spanning tree with send: 1, recv: 0 with branch factor 9
Info: build node-aware spanning tree with send: 1, recv: 0 with branch factor 9
Info: build node-aware spanning tree with send: 1, recv: 0 with branch factor 9
Info: build node-aware spanning tree with send: 1, recv: 0 with branch factor 9
Info: build node-aware spanning tree with send: 1, recv: 0 with branch factor 9
Info: build node-aware spanning tree with send: 1, recv: 0 with branch factor 9
Info: build node-aware spanning tree with send: 1, recv: 0 with branch factor 9
Info: build node-aware spanning tree with send: 1, recv: 0 with branch factor 9
Info: build node-aware spanning tree with send: 1, recv: 0 with branch factor 9
ETITLE: TS BOND ANGLE DIHED IMPRP ELECT VDW BOUNDARY MISC KINETIC TOTAL TEMP POTENTIAL TOTAL3 TEMPAVG PRESSURE GPRESSURE VOLUME PRESSAVG GPRESSAVG
ENERGY: 10000 225.4759 704.3078 303.0245 38.4363 -36813.7518 2714.5614 0.0000 0.0000 6563.8155 -26264.1305 310.9642 -32827.9459 -26238.9143 285.6914 -109.8223 -100.9835 101312.5160 0.1214 -0.0133
ENERGY: 20000 239.7868 729.4009 299.3036 41.5660 -36935.1600 2641.5027 0.0000 0.0000 6478.1265 -26505.4736 306.9047 -32983.6001 -26479.6569 309.2518 -665.4935 -648.8935 101702.6966 3.2728 3.2922
