Info: SIMULATION PARAMETERS:
Info: TIMESTEP               2
Info: NUMBER OF STEPS        0
Info: STEPS PER CYCLE        10
Info: PERIODIC CELL BASIS 1  48 0 0
Info: PERIODIC CELL BASIS 2  0 48 0
Info: PERIODIC CELL BASIS 3  0 0 48
Info: PERIODIC CELL CENTER   0 0 0
Info: WRAPPING WATERS AROUND PERIODIC BOUNDARIES ON OUTPUT.
Info: WRAPPING ALL CLUSTERS AROUND PERIODIC BOUNDARIES ON OUTPUT.
Info: FIRST LDB TIMESTEP     50
Info: LAST LDB TIMESTEP     -1
Info: HOM BACKGROUND SCALING 1
Info: PME BACKGROUND SCALING 1
Info: MIN ATOMS PER PATCH    40
Info: INITIAL TEMPERATURE    310
Info: CENTER OF MASS MOVING INITIALLY? NO
Info: DIELECTRIC             1
Info: EXCLUDE                SCALED ONE-FOUR
Info: 1-4 ELECTROSTATICS SCALED BY 1
Info: MODIFIED 1-4 VDW PARAMETERS WILL BE USED
Info: DCD FILENAME           current_MD_run_files.dcd
Info: DCD FREQUENCY          25000
Info: DCD FIRST STEP         25000
Info: DCD FILE WILL CONTAIN UNIT CELL DATA
Info: XST FILENAME           current_MD_run_files.xst
Info: XST FREQUENCY          25000
Info: NO VELOCITY DCD OUTPUT
Info: NO FORCE DCD OUTPUT
Info: OUTPUT FILENAME        current_MD_run_files
Info: BINARY OUTPUT FILES WILL BE USED
Info: RESTART FILENAME       current_MD_run_files.restart
Info: RESTART FREQUENCY      500000
Info: BINARY RESTART FILES WILL BE USED
Info: SWITCHING ACTIVE
Info: SWITCHING ON           10
Info: SWITCHING OFF          12
Info: PAIRLIST DISTANCE      14
Info: PAIRLIST SHRINK RATE   0.01
Info: PAIRLIST GROW RATE     0.01
Info: PAIRLIST TRIGGER       0.3
Info: PAIRLISTS PER CYCLE    2
Info: PAIRLISTS ENABLED
Info: MARGIN                 0.99
Info: HYDROGEN GROUP CUTOFF  2.5
Info: PATCH DIMENSION        17.49
Info: ENERGY OUTPUT STEPS    25000
Info: CROSSTERM ENERGY INCLUDED IN DIHEDRAL
Info: TIMING OUTPUT STEPS    25000
Info: PRESSURE OUTPUT STEPS  25000
Info: LANGEVIN DYNAMICS ACTIVE
Info: LANGEVIN TEMPERATURE   310
Info: LANGEVIN USING BBK INTEGRATOR
Info: LANGEVIN DAMPING COEFFICIENT IS 5 INVERSE PS
Info: LANGEVIN DYNAMICS NOT APPLIED TO HYDROGENS
Info: LANGEVIN PISTON PRESSURE CONTROL ACTIVE
Info:        TARGET PRESSURE IS 1.01325 BAR
Info:     OSCILLATION PERIOD IS 100 FS
Info:             DECAY TIME IS 50 FS
Info:     PISTON TEMPERATURE IS 310 K
Info:       PRESSURE CONTROL IS GROUP-BASED
Info:    INITIAL STRAIN RATE IS 0 0 0
Info:       CELL FLUCTUATION IS ANISOTROPIC
Info: PARTICLE MESH EWALD (PME) ACTIVE
Info: PME TOLERANCE               1e-06
Info: PME EWALD COEFFICIENT       0.257952
Info: PME INTERPOLATION ORDER     4
Info: PME GRID DIMENSIONS         48 48 48
Info: PME MAXIMUM GRID SPACING    1
Info: FULL ELECTROSTATIC EVALUATION FREQUENCY      2
Info: USING VERLET I (r-RESPA) MTS SCHEME.
Info: C1 SPLITTING OF LONG RANGE ELECTROSTATICS
Info: PLACING ATOMS IN PATCHES BY HYDROGEN GROUPS
Info: RIGID BONDS TO HYDROGEN : ALL
Info:         ERROR TOLERANCE : 1e-08
Info:          MAX ITERATIONS : 100
Info: RIGID WATER USING SETTLE ALGORITHM
Info: RANDOM NUMBER SEED     1505516776
Info: USE HYDROGEN BONDS?    NO
Info: COORDINATE PDB         ../../InputFiles/example.pdb
Info: STRUCTURE FILE         ../../InputFiles/example.psf
Info: PARAMETER file: CHARMM format!
Info: PARAMETERS             ../../InputFiles/Parameters/par_all27_prot_na.prm
Info: USING ARITHMETIC MEAN TO COMBINE L-J SIGMA PARAMETERS
Info: SUMMARY OF PARAMETERS:
Info: 258 BONDS
Info: 666 ANGLES
Info: 1134 DIHEDRAL
Info: 70 IMPROPER
Info: 6 CROSSTERM
Info: 164 VDW
Info: 0 VDW_PAIRS
Info: 0 NBTHOLE_PAIRS
Info: STRUCTURE SUMMARY:
Info: 10315 ATOMS
Info: 7285 BONDS
Info: 5281 ANGLES
Info: 3293 DIHEDRALS
Info: 204 IMPROPERS
Info: 74 CROSSTERMS
Info: 0 EXCLUSIONS
Info: 9701 RIGID BONDS
Info: 21244 DEGREES OF FREEDOM
Info: 3638 HYDROGEN GROUPS
Info: 4 ATOMS IN LARGEST HYDROGEN GROUP
Info: 3638 MIGRATION GROUPS
Info: 4 ATOMS IN LARGEST MIGRATION GROUP
Info: TOTAL MASS = 63394.1 amu
Info: TOTAL CHARGE = 1.00955e-06 e
Info: MASS DENSITY = 0.951884 g/cm^3
Info: ATOM DENSITY = 0.0932708 atoms/A^3
Info: ADDED 15830 IMPLICIT EXCLUSIONS
Info: NONBONDED TABLE R-SQUARED SPACING: 0.0625
Info: NONBONDED TABLE SIZE: 769 POINTS
Info: REMOVING COM VELOCITY -0.0935594 -0.125623 -0.018761
Info: Updated CUDA force table with 4096 elements.
Info: Updated CUDA LJ table with 164 x 164 elements.
Info: Found 224 unique exclusion lists needing 632 bytes
TCL: Minimizing for 500 steps
ETITLE: TS BOND ANGLE DIHED IMPRP ELECT VDW BOUNDARY MISC KINETIC TOTAL TEMP POTENTIAL TOTAL3 TEMPAVG PRESSURE GPRESSURE VOLUME PRESSAVG GPRESSAVG
ENERGY: 0 269.5993 845.9952 263.7058 10.6900 -29000.3908 783426.9701 0.0000 0.0000 0.0000 755816.5696 0.0000 755816.5696 755816.5696 0.0000 -3760.0298 -22004.9281 110592.0000 -3760.0298 -22004.9281
ENERGY: 100 159.4886 274.2821 269.8866 12.4017 -36528.9656 1752.7664 0.0000 0.0000 0.0000 -34060.1401 0.0000 -34060.1401 -34060.1401 0.0000 -3199.8917 -20377.3706 110592.0000 -3199.8917 -20377.3706
ENERGY: 200 75.8072 224.9358 246.9821 7.9645 -38952.5065 2197.3473 0.0000 0.0000 0.0000 -36199.4697 0.0000 -36199.4697 -36199.4697 0.0000 -3079.5518 -21666.2347 110592.0000 -3079.5518 -21666.2347
ENERGY: 300 67.3337 214.9865 236.6487 7.2908 -40676.0307 2677.3170 0.0000 0.0000 0.0000 -37472.4541 0.0000 -37472.4541 -37472.4541 0.0000 -3081.1829 -22605.9987 110592.0000 -3081.1829 -22605.9987
ENERGY: 400 160.5240 248.0556 232.2081 11.6835 -41678.1958 3157.2451 0.0000 0.0000 0.0000 -37868.4794 0.0000 -37868.4794 -37868.4794 0.0000 -3109.8733 -23099.5329 110592.0000 -3109.8733 -23099.5329
ENERGY: 500 63.1891 214.2183 224.1470 6.1820 -42256.2702 3196.0286 0.0000 0.0000 0.0000 -38552.5051 0.0000 -38552.5051 -38552.5051 0.0000 -3096.2267 -23491.7874 110592.0000 -3096.2267 -23491.7874
TCL: Running for 500000 steps
ETITLE: TS BOND ANGLE DIHED IMPRP ELECT VDW BOUNDARY MISC KINETIC TOTAL TEMP POTENTIAL TOTAL3 TEMPAVG PRESSURE GPRESSURE VOLUME PRESSAVG GPRESSAVG
ENERGY: 25000 208.3466 665.4241 312.3358 50.1881 -36786.7138 2701.7577 0.0000 0.0000 6457.5183 -26391.1431 305.9284 -32848.6614 -26370.8437 304.8719 77.8459 115.0559 101718.0826 3.1912 3.2129
ENERGY: 125000 236.5195 685.5977 310.8087 36.4428 -37205.6259 2888.3918 0.0000 0.0000 6545.7870 -26502.0785 310.1101 -33047.8655 -26477.2505 309.8773 791.6970 811.2723 100429.5885 -0.3338 -0.2620
ENERGY: 225000 221.3370 728.8352 306.1955 31.5678 -37159.4268 2849.7752 0.0000 0.0000 6549.7243 -26471.9918 310.2967 -33021.7161 -26447.8469 309.0782 757.9517 782.2874 100359.6257 2.6955 2.6228
ENERGY: 300000 233.5780 715.0448 290.9714 44.9836 -36896.2457 2612.2628 0.0000 0.0000 6669.8315 -26329.5735 315.9868 -32999.4051 -26305.0090 309.0434 -154.1182 -124.2041 101873.6878 2.8628 2.8714
ENERGY: 400000 241.8034 685.1592 289.0336 46.1452 -36833.1966 2655.1415 0.0000 0.0000 6539.0331 -26376.8805 309.7902 -32915.9136 -26355.3092 309.0172 -420.1372 -386.0694 101834.1591 0.8493 0.7564
ENERGY: 500000 221.7697 700.6862 295.5045 38.8235 -37054.3409 2812.2905 0.0000 0.0000 6503.0067 -26482.2597 308.0834 -32985.2664 -26460.7261 309.5893 356.8166 397.3438 101412.9486 3.7690 3.7653
