Info: SIMULATION PARAMETERS:
Info: TIMESTEP               2
Info: NUMBER OF STEPS        0
Info: STEPS PER CYCLE        10
Info: PERIODIC CELL BASIS 1  48 0 0
Info: PERIODIC CELL BASIS 2  0 48 0
Info: PERIODIC CELL BASIS 3  0 0 48
Info: PERIODIC CELL CENTER   0 0 0
Info: WRAPPING WATERS AROUND PERIODIC BOUNDARIES ON OUTPUT.
Info: WRAPPING ALL CLUSTERS AROUND PERIODIC BOUNDARIES ON OUTPUT.
Info: FIRST LDB TIMESTEP     50
Info: LAST LDB TIMESTEP     -1
Info: HOM BACKGROUND SCALING 1
Info: PME BACKGROUND SCALING 1
Info: REMOVING PATCHES FROM PROCESSOR 0
Info: MIN ATOMS PER PATCH    40
Info: INITIAL TEMPERATURE    310
Info: CENTER OF MASS MOVING INITIALLY? NO
Info: DIELECTRIC             1
Info: EXCLUDE                SCALED ONE-FOUR
Info: 1-4 ELECTROSTATICS SCALED BY 1
Info: MODIFIED 1-4 VDW PARAMETERS WILL BE USED
Info: DCD FILENAME           current_MD_run_files.dcd
Info: DCD FREQUENCY          10000
Info: DCD FIRST STEP         10000
Info: DCD FILE WILL CONTAIN UNIT CELL DATA
Info: XST FILENAME           current_MD_run_files.xst
Info: XST FREQUENCY          10000
Info: NO VELOCITY DCD OUTPUT
Info: NO FORCE DCD OUTPUT
Info: OUTPUT FILENAME        current_MD_run_files
Info: BINARY OUTPUT FILES WILL BE USED
Info: RESTART FILENAME       current_MD_run_files.restart
Info: RESTART FREQUENCY      50000
Info: BINARY RESTART FILES WILL BE USED
Info: SWITCHING ACTIVE
Info: SWITCHING ON           10
Info: SWITCHING OFF          12
Info: PAIRLIST DISTANCE      14
Info: PAIRLIST SHRINK RATE   0.01
Info: PAIRLIST GROW RATE     0.01
Info: PAIRLIST TRIGGER       0.3
Info: PAIRLISTS PER CYCLE    2
Info: PAIRLISTS ENABLED
Info: MARGIN                 0.99
Info: HYDROGEN GROUP CUTOFF  2.5
Info: PATCH DIMENSION        17.49
Info: ENERGY OUTPUT STEPS    10000
Info: CROSSTERM ENERGY INCLUDED IN DIHEDRAL
Info: TIMING OUTPUT STEPS    10000
Info: PRESSURE OUTPUT STEPS  10000
Info: LANGEVIN DYNAMICS ACTIVE
Info: LANGEVIN TEMPERATURE   310
Info: LANGEVIN DAMPING COEFFICIENT IS 5 INVERSE PS
Info: LANGEVIN DYNAMICS NOT APPLIED TO HYDROGENS
Info: LANGEVIN PISTON PRESSURE CONTROL ACTIVE
Info:        TARGET PRESSURE IS 1.01325 BAR
Info:     OSCILLATION PERIOD IS 100 FS
Info:             DECAY TIME IS 50 FS
Info:     PISTON TEMPERATURE IS 310 K
Info:       PRESSURE CONTROL IS GROUP-BASED
Info:    INITIAL STRAIN RATE IS 0 0 0
Info:       CELL FLUCTUATION IS ANISOTROPIC
Info: PARTICLE MESH EWALD (PME) ACTIVE
Info: PME TOLERANCE               1e-06
Info: PME EWALD COEFFICIENT       0.257952
Info: PME INTERPOLATION ORDER     4
Info: PME GRID DIMENSIONS         48 48 48
Info: PME MAXIMUM GRID SPACING    1
Info: FULL ELECTROSTATIC EVALUATION FREQUENCY      2
Info: USING VERLET I (r-RESPA) MTS SCHEME.
Info: C1 SPLITTING OF LONG RANGE ELECTROSTATICS
Info: PLACING ATOMS IN PATCHES BY HYDROGEN GROUPS
Info: RIGID BONDS TO HYDROGEN : ALL
Info:         ERROR TOLERANCE : 1e-08
Info:          MAX ITERATIONS : 100
Info: RIGID WATER USING SETTLE ALGORITHM
Info: RANDOM NUMBER SEED     1420687076
Info: USE HYDROGEN BONDS?    NO
Info: COORDINATE PDB         ../../InputFiles/example.pdb
Info: STRUCTURE FILE         ../../InputFiles/example.psf
Info: PARAMETER file: CHARMM format!
Info: PARAMETERS             ../../InputFiles/Parameters/par_all27_prot_na.prm
Info: USING ARITHMETIC MEAN TO COMBINE L-J SIGMA PARAMETERS
Info: SUMMARY OF PARAMETERS:
Info: 258 BONDS
Info: 666 ANGLES
Info: 1134 DIHEDRAL
Info: 70 IMPROPER
Info: 6 CROSSTERM
Info: 164 VDW
Info: 0 VDW_PAIRS
Info: 0 NBTHOLE_PAIRS
Info: STRUCTURE SUMMARY:
Info: 10315 ATOMS
Info: 7285 BONDS
Info: 5281 ANGLES
Info: 3293 DIHEDRALS
Info: 204 IMPROPERS
Info: 74 CROSSTERMS
Info: 0 EXCLUSIONS
Info: 9701 RIGID BONDS
Info: 21244 DEGREES OF FREEDOM
Info: 3638 HYDROGEN GROUPS
Info: 4 ATOMS IN LARGEST HYDROGEN GROUP
Info: 3638 MIGRATION GROUPS
Info: 4 ATOMS IN LARGEST MIGRATION GROUP
Info: TOTAL MASS = 63394.1 amu
Info: TOTAL CHARGE = 1.00955e-06 e
Info: MASS DENSITY = 0.951884 g/cm^3
Info: ATOM DENSITY = 0.0932708 atoms/A^3
Info: REMOVING COM VELOCITY -0.0415603 0.00625548 -0.0637943
Info: NONBONDED TABLE R-SQUARED SPACING: 0.0625
Info: NONBONDED TABLE SIZE: 769 POINTS
Info: Building spanning tree ... send: 1 recv: 0 with branch factor 9
TCL: Minimizing for 5000 steps
Info: build node-aware spanning tree with send: 1, recv: 0 with branch factor 9
Info: build node-aware spanning tree with send: 1, recv: 0 with branch factor 9
Info: build node-aware spanning tree with send: 1, recv: 0 with branch factor 9
Info: build node-aware spanning tree with send: 1, recv: 0 with branch factor 9
Info: build node-aware spanning tree with send: 1, recv: 0 with branch factor 9
Info: build node-aware spanning tree with send: 1, recv: 0 with branch factor 9
ETITLE: TS BOND ANGLE DIHED IMPRP ELECT VDW BOUNDARY MISC KINETIC TOTAL TEMP POTENTIAL TOTAL3 TEMPAVG PRESSURE GPRESSURE VOLUME PRESSAVG GPRESSAVG
ENERGY: 0 3088.5033 1499.3301 263.8206 10.6933 -30848.5032 336586487.2282 0.0000 0.0000 0.0000 336560501.0723 -0.0000 336560501.0723 336560501.0723 0.0000 846098063.7249 846104120.5607 110592.0000 846098063.7249 846104120.5607
ENERGY: 1000 1442.3104 1103.8437 222.8753 6.1789 -49342.9344 4800.6630 0.0000 0.0000 0.0000 -41767.0631 -0.0000 -41767.0631 -41767.0631 0.0000 -5466.6717 -5372.1318 110592.0000 -5466.6717 -5372.1318
ENERGY: 2000 1465.5556 1107.2864 216.0723 5.7590 -50303.1919 5153.9942 0.0000 0.0000 0.0000 -42354.5245 -0.0000 -42354.5245 -42354.5245 0.0000 -4932.1044 -4929.1871 110592.0000 -4932.1044 -4929.1871
ENERGY: 3000 1484.3703 1113.0461 211.4158 6.1735 -50756.1750 5315.8475 0.0000 0.0000 0.0000 -42625.3218 -0.0000 -42625.3218 -42625.3218 0.0000 -4726.8772 -4725.0694 110592.0000 -4726.8772 -4725.0694
ENERGY: 4000 1497.4272 1118.1799 210.5793 5.9518 -51023.8396 5426.7398 0.0000 0.0000 0.0000 -42764.9615 -0.0000 -42764.9615 -42764.9615 0.0000 -4586.9945 -4576.9783 110592.0000 -4586.9945 -4576.9783
ENERGY: 5000 1501.3933 1117.1119 209.1003 5.9849 -51115.2017 5453.8899 0.0000 0.0000 0.0000 -42827.7213 -0.0000 -42827.7213 -42827.7213 0.0000 -4571.8088 -4568.7952 110592.0000 -4571.8088 -4568.7952
TCL: Running for 50000 steps
Info: build node-aware spanning tree with send: 1, recv: 0 with branch factor 9
Info: build node-aware spanning tree with send: 1, recv: 0 with branch factor 9
Info: build node-aware spanning tree with send: 1, recv: 0 with branch factor 9
Info: build node-aware spanning tree with send: 1, recv: 0 with branch factor 9
Info: build node-aware spanning tree with send: 1, recv: 0 with branch factor 9
Info: build node-aware spanning tree with send: 1, recv: 0 with branch factor 9
Info: build node-aware spanning tree with send: 1, recv: 0 with branch factor 9
Info: build node-aware spanning tree with send: 1, recv: 0 with branch factor 9
Info: build node-aware spanning tree with send: 1, recv: 0 with branch factor 9
Info: build node-aware spanning tree with send: 1, recv: 0 with branch factor 9
Info: build node-aware spanning tree with send: 1, recv: 0 with branch factor 9
ETITLE: TS BOND ANGLE DIHED IMPRP ELECT VDW BOUNDARY MISC KINETIC TOTAL TEMP POTENTIAL TOTAL3 TEMPAVG PRESSURE GPRESSURE VOLUME PRESSAVG GPRESSAVG
ENERGY: 10000 236.0466 681.3225 308.3826 38.2484 -36615.3440 2488.2788 0.0000 0.0000 6541.1408 -26321.9244 309.8900 -32863.0651 -26294.0912 285.2791 -661.8127 -623.4399 101789.2921 0.0834 0.2842
ENERGY: 20000 223.3718 690.8482 295.3228 41.8635 -37104.3384 2801.0837 0.0000 0.0000 6469.0718 -26582.7766 306.4757 -33051.8484 -26556.7077 308.4687 182.8409 215.4864 101027.8413 -3.4582 -3.3854
