Info: SIMULATION PARAMETERS:
Info: TIMESTEP               2
Info: NUMBER OF STEPS        0
Info: STEPS PER CYCLE        10
Info: PERIODIC CELL BASIS 1  48 0 0
Info: PERIODIC CELL BASIS 2  0 48 0
Info: PERIODIC CELL BASIS 3  0 0 48
Info: PERIODIC CELL CENTER   0 0 0
Info: WRAPPING WATERS AROUND PERIODIC BOUNDARIES ON OUTPUT.
Info: WRAPPING ALL CLUSTERS AROUND PERIODIC BOUNDARIES ON OUTPUT.
Info: FIRST LDB TIMESTEP     50
Info: LAST LDB TIMESTEP     -1
Info: HOM BACKGROUND SCALING 1
Info: PME BACKGROUND SCALING 1
Info: MIN ATOMS PER PATCH    40
Info: INITIAL TEMPERATURE    310
Info: CENTER OF MASS MOVING INITIALLY? NO
Info: DIELECTRIC             1
Info: EXCLUDE                SCALED ONE-FOUR
Info: 1-4 ELECTROSTATICS SCALED BY 1
Info: MODIFIED 1-4 VDW PARAMETERS WILL BE USED
Info: DCD FILENAME           current_MD_run_files.dcd
Info: DCD FREQUENCY          25000
Info: DCD FIRST STEP         25000
Info: DCD FILE WILL CONTAIN UNIT CELL DATA
Info: XST FILENAME           current_MD_run_files.xst
Info: XST FREQUENCY          25000
Info: NO VELOCITY DCD OUTPUT
Info: NO FORCE DCD OUTPUT
Info: OUTPUT FILENAME        current_MD_run_files
Info: BINARY OUTPUT FILES WILL BE USED
Info: RESTART FILENAME       current_MD_run_files.restart
Info: RESTART FREQUENCY      500000
Info: BINARY RESTART FILES WILL BE USED
Info: SWITCHING ACTIVE
Info: SWITCHING ON           10
Info: SWITCHING OFF          12
Info: PAIRLIST DISTANCE      14
Info: PAIRLIST SHRINK RATE   0.01
Info: PAIRLIST GROW RATE     0.01
Info: PAIRLIST TRIGGER       0.3
Info: PAIRLISTS PER CYCLE    2
Info: PAIRLISTS ENABLED
Info: MARGIN                 0.99
Info: HYDROGEN GROUP CUTOFF  2.5
Info: PATCH DIMENSION        17.49
Info: ENERGY OUTPUT STEPS    25000
Info: CROSSTERM ENERGY INCLUDED IN DIHEDRAL
Info: TIMING OUTPUT STEPS    25000
Info: PRESSURE OUTPUT STEPS  25000
Info: LANGEVIN DYNAMICS ACTIVE
Info: LANGEVIN TEMPERATURE   310
Info: LANGEVIN USING BBK INTEGRATOR
Info: LANGEVIN DAMPING COEFFICIENT IS 5 INVERSE PS
Info: LANGEVIN DYNAMICS NOT APPLIED TO HYDROGENS
Info: LANGEVIN PISTON PRESSURE CONTROL ACTIVE
Info:        TARGET PRESSURE IS 1.01325 BAR
Info:     OSCILLATION PERIOD IS 100 FS
Info:             DECAY TIME IS 50 FS
Info:     PISTON TEMPERATURE IS 310 K
Info:       PRESSURE CONTROL IS GROUP-BASED
Info:    INITIAL STRAIN RATE IS 0 0 0
Info:       CELL FLUCTUATION IS ANISOTROPIC
Info: PARTICLE MESH EWALD (PME) ACTIVE
Info: PME TOLERANCE               1e-06
Info: PME EWALD COEFFICIENT       0.257952
Info: PME INTERPOLATION ORDER     4
Info: PME GRID DIMENSIONS         48 48 48
Info: PME MAXIMUM GRID SPACING    1
Info: FULL ELECTROSTATIC EVALUATION FREQUENCY      2
Info: USING VERLET I (r-RESPA) MTS SCHEME.
Info: C1 SPLITTING OF LONG RANGE ELECTROSTATICS
Info: PLACING ATOMS IN PATCHES BY HYDROGEN GROUPS
Info: RIGID BONDS TO HYDROGEN : ALL
Info:         ERROR TOLERANCE : 1e-08
Info:          MAX ITERATIONS : 100
Info: RIGID WATER USING SETTLE ALGORITHM
Info: RANDOM NUMBER SEED     1505516776
Info: USE HYDROGEN BONDS?    NO
Info: COORDINATE PDB         ../../InputFiles/example.pdb
Info: STRUCTURE FILE         ../../InputFiles/example.psf
Info: PARAMETER file: CHARMM format!
Info: PARAMETERS             ../../InputFiles/Parameters/par_all27_prot_na.prm
Info: USING ARITHMETIC MEAN TO COMBINE L-J SIGMA PARAMETERS
Info: SUMMARY OF PARAMETERS:
Info: 258 BONDS
Info: 666 ANGLES
Info: 1134 DIHEDRAL
Info: 70 IMPROPER
Info: 6 CROSSTERM
Info: 164 VDW
Info: 0 VDW_PAIRS
Info: 0 NBTHOLE_PAIRS
Info: STRUCTURE SUMMARY:
Info: 10315 ATOMS
Info: 7285 BONDS
Info: 5281 ANGLES
Info: 3293 DIHEDRALS
Info: 204 IMPROPERS
Info: 74 CROSSTERMS
Info: 0 EXCLUSIONS
Info: 9701 RIGID BONDS
Info: 21244 DEGREES OF FREEDOM
Info: 3638 HYDROGEN GROUPS
Info: 4 ATOMS IN LARGEST HYDROGEN GROUP
Info: 3638 MIGRATION GROUPS
Info: 4 ATOMS IN LARGEST MIGRATION GROUP
Info: TOTAL MASS = 63394.1 amu
Info: TOTAL CHARGE = 1.00955e-06 e
Info: MASS DENSITY = 0.951884 g/cm^3
Info: ATOM DENSITY = 0.0932708 atoms/A^3
Info: ADDED 15830 IMPLICIT EXCLUSIONS
Info: NONBONDED TABLE R-SQUARED SPACING: 0.0625
Info: NONBONDED TABLE SIZE: 769 POINTS
Info: REMOVING COM VELOCITY -0.0935594 -0.125623 -0.018761
Info: Updated CUDA force table with 4096 elements.
Info: Updated CUDA LJ table with 164 x 164 elements.
Info: Found 224 unique exclusion lists needing 632 bytes
TCL: Minimizing for 500 steps
ETITLE: TS BOND ANGLE DIHED IMPRP ELECT VDW BOUNDARY MISC KINETIC TOTAL TEMP POTENTIAL TOTAL3 TEMPAVG PRESSURE GPRESSURE VOLUME PRESSAVG GPRESSAVG
ENERGY: 0 269.5993 845.9952 263.7058 10.6900 -29000.3909 783426.9701 0.0000 0.0000 0.0000 755816.5695 0.0000 755816.5695 755816.5695 0.0000 -3760.0298 -22004.9286 110592.0000 -3760.0298 -22004.9286
ENERGY: 100 90.3109 262.1919 271.8981 12.7569 -36239.7600 1718.1421 0.0000 0.0000 0.0000 -33884.4601 0.0000 -33884.4601 -33884.4601 0.0000 -2968.9122 -20085.9296 110592.0000 -2968.9122 -20085.9296
ENERGY: 200 80.8325 217.8925 247.6520 7.8092 -39042.0631 2311.1772 0.0000 0.0000 0.0000 -36176.6997 0.0000 -36176.6997 -36176.6997 0.0000 -3237.0204 -21783.3751 110592.0000 -3237.0204 -21783.3751
ENERGY: 300 69.0200 226.4156 238.7983 6.8589 -40748.8365 2883.7589 0.0000 0.0000 0.0000 -37323.9848 0.0000 -37323.9848 -37323.9848 0.0000 -3046.1139 -22576.9251 110592.0000 -3046.1139 -22576.9251
ENERGY: 400 205.6281 253.6880 232.0316 11.9862 -41609.9951 3040.4781 0.0000 0.0000 0.0000 -37866.1830 0.0000 -37866.1830 -37866.1830 0.0000 -3306.7719 -23328.6219 110592.0000 -3306.7719 -23328.6219
ENERGY: 500 61.2524 215.9446 224.8677 6.5114 -42207.2443 3152.5374 0.0000 0.0000 0.0000 -38546.1308 0.0000 -38546.1308 -38546.1308 0.0000 -3052.9396 -23444.0075 110592.0000 -3052.9396 -23444.0075
TCL: Running for 500000 steps
ETITLE: TS BOND ANGLE DIHED IMPRP ELECT VDW BOUNDARY MISC KINETIC TOTAL TEMP POTENTIAL TOTAL3 TEMPAVG PRESSURE GPRESSURE VOLUME PRESSAVG GPRESSAVG
ENERGY: 25000 230.1955 718.9311 298.1610 41.6057 -37021.0493 2832.6882 0.0000 0.0000 6595.3695 -26304.0982 312.4591 -32899.4677 -26276.1027 305.3786 372.2296 399.5714 101288.7195 3.1614 3.2061
ENERGY: 125000 218.6833 741.5605 286.6903 41.0544 -37184.2167 2811.3309 0.0000 0.0000 6580.5612 -26504.3363 311.7576 -33084.8975 -26477.4615 309.0649 487.4443 536.0966 100719.6940 -0.1854 -0.2530
ENERGY: 225000 228.4606 685.9913 297.2499 37.4654 -36979.9897 2796.2385 0.0000 0.0000 6503.5771 -26431.0068 308.1104 -32934.5839 -26414.0264 309.8637 229.8216 248.0085 101409.0805 2.5980 2.5775
ENERGY: 300000 239.8069 734.2349 287.2683 42.3566 -37169.1938 2793.1775 0.0000 0.0000 6475.0248 -26597.3248 306.7577 -33072.3496 -26577.0301 309.4873 -164.5654 -161.0176 100990.2181 2.9833 2.9063
ENERGY: 400000 233.9798 701.9223 278.6035 39.7751 -37058.7326 2766.7996 0.0000 0.0000 6497.8548 -26539.7974 307.8393 -33037.6522 -26512.9168 309.8318 -281.7003 -253.5699 101584.5261 0.8410 0.7653
ENERGY: 500000 231.1662 771.0275 281.2728 47.4471 -37100.4586 2778.9589 0.0000 0.0000 6584.1311 -26406.4550 311.9267 -32990.5860 -26384.9564 309.0681 517.6962 550.1669 100259.3918 3.6607 3.6542
