Info: SIMULATION PARAMETERS:
Info: TIMESTEP               2
Info: NUMBER OF STEPS        0
Info: STEPS PER CYCLE        10
Info: PERIODIC CELL BASIS 1  48 0 0
Info: PERIODIC CELL BASIS 2  0 48 0
Info: PERIODIC CELL BASIS 3  0 0 48
Info: PERIODIC CELL CENTER   0 0 0
Info: WRAPPING WATERS AROUND PERIODIC BOUNDARIES ON OUTPUT.
Info: WRAPPING ALL CLUSTERS AROUND PERIODIC BOUNDARIES ON OUTPUT.
Info: FIRST LDB TIMESTEP     50
Info: LAST LDB TIMESTEP     -1
Info: HOM BACKGROUND SCALING 1
Info: PME BACKGROUND SCALING 1
Info: MIN ATOMS PER PATCH    40
Info: INITIAL TEMPERATURE    310
Info: CENTER OF MASS MOVING INITIALLY? NO
Info: DIELECTRIC             1
Info: EXCLUDE                SCALED ONE-FOUR
Info: 1-4 ELECTROSTATICS SCALED BY 1
Info: MODIFIED 1-4 VDW PARAMETERS WILL BE USED
Info: DCD FILENAME           current_MD_run_files.dcd
Info: DCD FREQUENCY          25000
Info: DCD FIRST STEP         25000
Info: DCD FILE WILL CONTAIN UNIT CELL DATA
Info: XST FILENAME           current_MD_run_files.xst
Info: XST FREQUENCY          25000
Info: NO VELOCITY DCD OUTPUT
Info: NO FORCE DCD OUTPUT
Info: OUTPUT FILENAME        current_MD_run_files
Info: BINARY OUTPUT FILES WILL BE USED
Info: RESTART FILENAME       current_MD_run_files.restart
Info: RESTART FREQUENCY      500000
Info: BINARY RESTART FILES WILL BE USED
Info: SWITCHING ACTIVE
Info: SWITCHING ON           10
Info: SWITCHING OFF          12
Info: PAIRLIST DISTANCE      14
Info: PAIRLIST SHRINK RATE   0.01
Info: PAIRLIST GROW RATE     0.01
Info: PAIRLIST TRIGGER       0.3
Info: PAIRLISTS PER CYCLE    2
Info: PAIRLISTS ENABLED
Info: MARGIN                 0.99
Info: HYDROGEN GROUP CUTOFF  2.5
Info: PATCH DIMENSION        17.49
Info: ENERGY OUTPUT STEPS    25000
Info: CROSSTERM ENERGY INCLUDED IN DIHEDRAL
Info: TIMING OUTPUT STEPS    25000
Info: PRESSURE OUTPUT STEPS  25000
Info: LANGEVIN DYNAMICS ACTIVE
Info: LANGEVIN TEMPERATURE   310
Info: LANGEVIN USING BBK INTEGRATOR
Info: LANGEVIN DAMPING COEFFICIENT IS 5 INVERSE PS
Info: LANGEVIN DYNAMICS NOT APPLIED TO HYDROGENS
Info: LANGEVIN PISTON PRESSURE CONTROL ACTIVE
Info:        TARGET PRESSURE IS 1.01325 BAR
Info:     OSCILLATION PERIOD IS 100 FS
Info:             DECAY TIME IS 50 FS
Info:     PISTON TEMPERATURE IS 310 K
Info:       PRESSURE CONTROL IS GROUP-BASED
Info:    INITIAL STRAIN RATE IS 0 0 0
Info:       CELL FLUCTUATION IS ANISOTROPIC
Info: PARTICLE MESH EWALD (PME) ACTIVE
Info: PME TOLERANCE               1e-06
Info: PME EWALD COEFFICIENT       0.257952
Info: PME INTERPOLATION ORDER     4
Info: PME GRID DIMENSIONS         48 48 48
Info: PME MAXIMUM GRID SPACING    1
Info: FULL ELECTROSTATIC EVALUATION FREQUENCY      2
Info: USING VERLET I (r-RESPA) MTS SCHEME.
Info: C1 SPLITTING OF LONG RANGE ELECTROSTATICS
Info: PLACING ATOMS IN PATCHES BY HYDROGEN GROUPS
Info: RIGID BONDS TO HYDROGEN : ALL
Info:         ERROR TOLERANCE : 1e-08
Info:          MAX ITERATIONS : 100
Info: RIGID WATER USING SETTLE ALGORITHM
Info: RANDOM NUMBER SEED     1505516777
Info: USE HYDROGEN BONDS?    NO
Info: COORDINATE PDB         ../../InputFiles/example.pdb
Info: STRUCTURE FILE         ../../InputFiles/example.psf
Info: PARAMETER file: CHARMM format!
Info: PARAMETERS             ../../InputFiles/Parameters/par_all27_prot_na.prm
Info: USING ARITHMETIC MEAN TO COMBINE L-J SIGMA PARAMETERS
Info: SUMMARY OF PARAMETERS:
Info: 258 BONDS
Info: 666 ANGLES
Info: 1134 DIHEDRAL
Info: 70 IMPROPER
Info: 6 CROSSTERM
Info: 164 VDW
Info: 0 VDW_PAIRS
Info: 0 NBTHOLE_PAIRS
Info: STRUCTURE SUMMARY:
Info: 10315 ATOMS
Info: 7285 BONDS
Info: 5281 ANGLES
Info: 3293 DIHEDRALS
Info: 204 IMPROPERS
Info: 74 CROSSTERMS
Info: 0 EXCLUSIONS
Info: 9701 RIGID BONDS
Info: 21244 DEGREES OF FREEDOM
Info: 3638 HYDROGEN GROUPS
Info: 4 ATOMS IN LARGEST HYDROGEN GROUP
Info: 3638 MIGRATION GROUPS
Info: 4 ATOMS IN LARGEST MIGRATION GROUP
Info: TOTAL MASS = 63394.1 amu
Info: TOTAL CHARGE = 1.00955e-06 e
Info: MASS DENSITY = 0.951884 g/cm^3
Info: ATOM DENSITY = 0.0932708 atoms/A^3
Info: ADDED 15830 IMPLICIT EXCLUSIONS
Info: NONBONDED TABLE R-SQUARED SPACING: 0.0625
Info: NONBONDED TABLE SIZE: 769 POINTS
Info: REMOVING COM VELOCITY 0.15001 0.00871961 0.0637125
Info: Updated CUDA force table with 4096 elements.
Info: Updated CUDA LJ table with 164 x 164 elements.
Info: Found 224 unique exclusion lists needing 632 bytes
TCL: Minimizing for 500 steps
ETITLE: TS BOND ANGLE DIHED IMPRP ELECT VDW BOUNDARY MISC KINETIC TOTAL TEMP POTENTIAL TOTAL3 TEMPAVG PRESSURE GPRESSURE VOLUME PRESSAVG GPRESSAVG
ENERGY: 0 269.5993 845.9952 263.7058 10.6900 -29000.3908 783426.9701 0.0000 0.0000 0.0000 755816.5696 0.0000 755816.5696 755816.5696 0.0000 -3760.0298 -22004.9251 110592.0000 -3760.0298 -22004.9251
ENERGY: 100 159.2307 274.1937 269.8853 12.3940 -36528.8106 1752.7741 0.0000 0.0000 0.0000 -34060.3328 0.0000 -34060.3328 -34060.3328 0.0000 -3199.5434 -20377.0424 110592.0000 -3199.5434 -20377.0424
ENERGY: 200 60.4319 231.5821 245.2834 9.3254 -39083.6673 2257.8488 0.0000 0.0000 0.0000 -36279.1958 0.0000 -36279.1958 -36279.1958 0.0000 -2928.9587 -21638.2885 110592.0000 -2928.9587 -21638.2885
ENERGY: 300 70.8877 219.2852 238.3008 7.6601 -40416.7291 2589.7267 0.0000 0.0000 0.0000 -37290.8686 0.0000 -37290.8686 -37290.8686 0.0000 -3174.5962 -22493.3766 110592.0000 -3174.5962 -22493.3766
ENERGY: 400 126.6778 257.1477 232.7224 12.8616 -41710.6805 3248.1457 0.0000 0.0000 0.0000 -37833.1253 0.0000 -37833.1253 -37833.1253 0.0000 -3014.7947 -23078.6144 110592.0000 -3014.7947 -23078.6144
ENERGY: 500 63.5154 220.2290 224.0682 6.3042 -42274.3741 3297.4768 0.0000 0.0000 0.0000 -38462.7806 0.0000 -38462.7806 -38462.7806 0.0000 -3101.4956 -23489.4210 110592.0000 -3101.4956 -23489.4210
TCL: Running for 500000 steps
ETITLE: TS BOND ANGLE DIHED IMPRP ELECT VDW BOUNDARY MISC KINETIC TOTAL TEMP POTENTIAL TOTAL3 TEMPAVG PRESSURE GPRESSURE VOLUME PRESSAVG GPRESSAVG
ENERGY: 25000 218.4144 721.4108 301.5789 35.1158 -37035.4643 2715.8616 0.0000 0.0000 6564.8946 -26478.1882 311.0154 -33043.0828 -26459.4846 305.0848 -121.2670 -80.4604 101209.8207 0.3299 0.3021
ENERGY: 125000 221.9614 690.2316 311.0880 48.6053 -37011.2592 2812.6787 0.0000 0.0000 6477.2049 -26449.4892 306.8610 -32926.6941 -26429.1658 309.2920 361.7404 396.1840 100927.5989 3.6002 3.5974
ENERGY: 225000 238.0511 691.2375 303.0735 42.9701 -36977.0602 2722.1432 0.0000 0.0000 6387.1199 -26592.4648 302.5932 -32979.5848 -26572.8889 309.0647 -284.1762 -272.4187 101343.6391 1.9262 1.9090
ENERGY: 300000 257.6598 720.4007 309.5330 39.0499 -36981.1075 2710.2213 0.0000 0.0000 6527.6963 -26416.5465 309.2531 -32944.2428 -26398.3935 309.5563 -313.7036 -295.1272 101293.5058 2.2404 2.2725
ENERGY: 400000 223.5138 668.9916 317.5573 52.4934 -36788.6119 2671.8262 0.0000 0.0000 6609.7045 -26244.5250 313.1383 -32854.2296 -26225.8223 309.9796 120.5411 158.2616 101006.2754 0.2792 0.2162
ENERGY: 500000 247.9607 747.0500 289.1439 39.0293 -36816.3416 2651.2157 0.0000 0.0000 6397.6059 -26444.3360 303.0900 -32841.9418 -26428.5793 309.9845 135.4578 171.0625 101451.5752 0.8317 0.8077
