Info: SIMULATION PARAMETERS:
Info: TIMESTEP               2
Info: NUMBER OF STEPS        0
Info: STEPS PER CYCLE        10
Info: PERIODIC CELL BASIS 1  48 0 0
Info: PERIODIC CELL BASIS 2  0 48 0
Info: PERIODIC CELL BASIS 3  0 0 48
Info: PERIODIC CELL CENTER   0 0 0
Info: WRAPPING WATERS AROUND PERIODIC BOUNDARIES ON OUTPUT.
Info: WRAPPING ALL CLUSTERS AROUND PERIODIC BOUNDARIES ON OUTPUT.
Info: FIRST LDB TIMESTEP     50
Info: LAST LDB TIMESTEP     -1
Info: HOM BACKGROUND SCALING 1
Info: PME BACKGROUND SCALING 1
Info: MIN ATOMS PER PATCH    40
Info: INITIAL TEMPERATURE    310
Info: CENTER OF MASS MOVING INITIALLY? NO
Info: DIELECTRIC             1
Info: EXCLUDE                SCALED ONE-FOUR
Info: 1-4 ELECTROSTATICS SCALED BY 1
Info: MODIFIED 1-4 VDW PARAMETERS WILL BE USED
Info: DCD FILENAME           current_MD_run_files.dcd
Info: DCD FREQUENCY          25000
Info: DCD FIRST STEP         25000
Info: DCD FILE WILL CONTAIN UNIT CELL DATA
Info: XST FILENAME           current_MD_run_files.xst
Info: XST FREQUENCY          25000
Info: NO VELOCITY DCD OUTPUT
Info: NO FORCE DCD OUTPUT
Info: OUTPUT FILENAME        current_MD_run_files
Info: BINARY OUTPUT FILES WILL BE USED
Info: RESTART FILENAME       current_MD_run_files.restart
Info: RESTART FREQUENCY      500000
Info: BINARY RESTART FILES WILL BE USED
Info: SWITCHING ACTIVE
Info: SWITCHING ON           10
Info: SWITCHING OFF          12
Info: PAIRLIST DISTANCE      14
Info: PAIRLIST SHRINK RATE   0.01
Info: PAIRLIST GROW RATE     0.01
Info: PAIRLIST TRIGGER       0.3
Info: PAIRLISTS PER CYCLE    2
Info: PAIRLISTS ENABLED
Info: MARGIN                 0.99
Info: HYDROGEN GROUP CUTOFF  2.5
Info: PATCH DIMENSION        17.49
Info: ENERGY OUTPUT STEPS    25000
Info: CROSSTERM ENERGY INCLUDED IN DIHEDRAL
Info: TIMING OUTPUT STEPS    25000
Info: PRESSURE OUTPUT STEPS  25000
Info: LANGEVIN DYNAMICS ACTIVE
Info: LANGEVIN TEMPERATURE   310
Info: LANGEVIN USING BBK INTEGRATOR
Info: LANGEVIN DAMPING COEFFICIENT IS 5 INVERSE PS
Info: LANGEVIN DYNAMICS NOT APPLIED TO HYDROGENS
Info: LANGEVIN PISTON PRESSURE CONTROL ACTIVE
Info:        TARGET PRESSURE IS 1.01325 BAR
Info:     OSCILLATION PERIOD IS 100 FS
Info:             DECAY TIME IS 50 FS
Info:     PISTON TEMPERATURE IS 310 K
Info:       PRESSURE CONTROL IS GROUP-BASED
Info:    INITIAL STRAIN RATE IS 0 0 0
Info:       CELL FLUCTUATION IS ANISOTROPIC
Info: PARTICLE MESH EWALD (PME) ACTIVE
Info: PME TOLERANCE               1e-06
Info: PME EWALD COEFFICIENT       0.257952
Info: PME INTERPOLATION ORDER     4
Info: PME GRID DIMENSIONS         48 48 48
Info: PME MAXIMUM GRID SPACING    1
Info: FULL ELECTROSTATIC EVALUATION FREQUENCY      2
Info: USING VERLET I (r-RESPA) MTS SCHEME.
Info: C1 SPLITTING OF LONG RANGE ELECTROSTATICS
Info: PLACING ATOMS IN PATCHES BY HYDROGEN GROUPS
Info: RIGID BONDS TO HYDROGEN : ALL
Info:         ERROR TOLERANCE : 1e-08
Info:          MAX ITERATIONS : 100
Info: RIGID WATER USING SETTLE ALGORITHM
Info: RANDOM NUMBER SEED     1505516777
Info: USE HYDROGEN BONDS?    NO
Info: COORDINATE PDB         ../../InputFiles/example.pdb
Info: STRUCTURE FILE         ../../InputFiles/example.psf
Info: PARAMETER file: CHARMM format!
Info: PARAMETERS             ../../InputFiles/Parameters/par_all27_prot_na.prm
Info: USING ARITHMETIC MEAN TO COMBINE L-J SIGMA PARAMETERS
Info: SUMMARY OF PARAMETERS:
Info: 258 BONDS
Info: 666 ANGLES
Info: 1134 DIHEDRAL
Info: 70 IMPROPER
Info: 6 CROSSTERM
Info: 164 VDW
Info: 0 VDW_PAIRS
Info: 0 NBTHOLE_PAIRS
Info: STRUCTURE SUMMARY:
Info: 10315 ATOMS
Info: 7285 BONDS
Info: 5281 ANGLES
Info: 3293 DIHEDRALS
Info: 204 IMPROPERS
Info: 74 CROSSTERMS
Info: 0 EXCLUSIONS
Info: 9701 RIGID BONDS
Info: 21244 DEGREES OF FREEDOM
Info: 3638 HYDROGEN GROUPS
Info: 4 ATOMS IN LARGEST HYDROGEN GROUP
Info: 3638 MIGRATION GROUPS
Info: 4 ATOMS IN LARGEST MIGRATION GROUP
Info: TOTAL MASS = 63394.1 amu
Info: TOTAL CHARGE = 1.00955e-06 e
Info: MASS DENSITY = 0.951884 g/cm^3
Info: ATOM DENSITY = 0.0932708 atoms/A^3
Info: ADDED 15830 IMPLICIT EXCLUSIONS
Info: NONBONDED TABLE R-SQUARED SPACING: 0.0625
Info: NONBONDED TABLE SIZE: 769 POINTS
Info: REMOVING COM VELOCITY 0.15001 0.00871961 0.0637125
Info: Updated CUDA force table with 4096 elements.
Info: Updated CUDA LJ table with 164 x 164 elements.
Info: Found 224 unique exclusion lists needing 632 bytes
TCL: Minimizing for 500 steps
ETITLE: TS BOND ANGLE DIHED IMPRP ELECT VDW BOUNDARY MISC KINETIC TOTAL TEMP POTENTIAL TOTAL3 TEMPAVG PRESSURE GPRESSURE VOLUME PRESSAVG GPRESSAVG
ENERGY: 0 269.5993 845.9952 263.7058 10.6900 -29000.3909 783426.9701 0.0000 0.0000 0.0000 755816.5695 0.0000 755816.5695 755816.5695 0.0000 -3760.0298 -22004.9237 110592.0000 -3760.0298 -22004.9237
ENERGY: 100 89.5449 258.3172 269.9742 11.6569 -36474.0665 1738.7092 0.0000 0.0000 0.0000 -34105.8641 0.0000 -34105.8641 -34105.8641 0.0000 -3112.2377 -20281.1016 110592.0000 -3112.2377 -20281.1016
ENERGY: 200 79.8758 217.8361 247.6956 7.8203 -39040.6291 2309.8414 0.0000 0.0000 0.0000 -36177.5599 0.0000 -36177.5599 -36177.5599 0.0000 -3236.2106 -21782.1077 110592.0000 -3236.2106 -21782.1077
ENERGY: 300 64.9654 220.8087 237.2390 7.7092 -40542.8097 2770.7204 0.0000 0.0000 0.0000 -37241.3669 0.0000 -37241.3669 -37241.3669 0.0000 -3111.9381 -22518.5346 110592.0000 -3111.9381 -22518.5346
ENERGY: 400 62.8460 222.0171 232.8358 7.2835 -41079.2398 2797.2544 0.0000 0.0000 0.0000 -37757.0030 0.0000 -37757.0030 -37757.0030 0.0000 -3125.6657 -22854.5077 110592.0000 -3125.6657 -22854.5077
ENERGY: 500 63.7044 222.9644 226.9198 7.0512 -42016.1673 3273.2072 0.0000 0.0000 0.0000 -38222.3203 0.0000 -38222.3203 -38222.3203 0.0000 -3129.4475 -23351.4220 110592.0000 -3129.4475 -23351.4220
TCL: Running for 500000 steps
ETITLE: TS BOND ANGLE DIHED IMPRP ELECT VDW BOUNDARY MISC KINETIC TOTAL TEMP POTENTIAL TOTAL3 TEMPAVG PRESSURE GPRESSURE VOLUME PRESSAVG GPRESSAVG
ENERGY: 25000 214.5949 693.2812 297.1489 44.0264 -36885.6877 2610.3099 0.0000 0.0000 6465.2788 -26561.0477 306.2960 -33026.3265 -26534.1193 305.4816 -231.9236 -198.7941 101132.7768 0.2215 0.2303
ENERGY: 125000 206.2201 735.6910 303.9658 39.3380 -37048.0091 2744.5534 0.0000 0.0000 6494.0072 -26524.2335 307.6570 -33018.2407 -26506.5331 310.1018 89.3237 130.9533 101324.6736 3.5500 3.5602
ENERGY: 225000 234.2345 723.8338 311.8901 44.7057 -37034.5387 2715.2124 0.0000 0.0000 6537.9421 -26466.7201 309.7385 -33004.6622 -26453.9306 309.7730 225.5669 265.3031 101020.3789 1.8365 1.9068
ENERGY: 300000 220.4275 713.2663 321.2760 40.3168 -36993.8759 2745.5367 0.0000 0.0000 6522.4773 -26430.5752 309.0058 -32953.0525 -26403.6897 309.5784 8.2487 27.4055 100786.6584 2.1872 2.2509
ENERGY: 400000 244.2451 715.6575 304.5532 36.2416 -36867.4798 2614.4142 0.0000 0.0000 6501.8888 -26450.4794 308.0304 -32952.3682 -26428.7807 309.2970 -363.4936 -322.1819 101433.7725 0.2286 0.1630
ENERGY: 500000 224.0425 716.8570 297.2640 42.3393 -36724.6155 2660.0655 0.0000 0.0000 6544.9722 -26239.0751 310.0715 -32784.0473 -26215.9590 309.5859 -10.9497 22.6301 101692.3832 0.7721 0.7847
