Info: SIMULATION PARAMETERS:
Info: TIMESTEP               2
Info: NUMBER OF STEPS        0
Info: STEPS PER CYCLE        10
Info: PERIODIC CELL BASIS 1  48 0 0
Info: PERIODIC CELL BASIS 2  0 48 0
Info: PERIODIC CELL BASIS 3  0 0 48
Info: PERIODIC CELL CENTER   0 0 0
Info: WRAPPING WATERS AROUND PERIODIC BOUNDARIES ON OUTPUT.
Info: WRAPPING ALL CLUSTERS AROUND PERIODIC BOUNDARIES ON OUTPUT.
Info: FIRST LDB TIMESTEP     50
Info: LAST LDB TIMESTEP     -1
Info: HOM BACKGROUND SCALING 1
Info: PME BACKGROUND SCALING 1
Info: REMOVING PATCHES FROM PROCESSOR 0
Info: MIN ATOMS PER PATCH    40
Info: INITIAL TEMPERATURE    310
Info: CENTER OF MASS MOVING INITIALLY? NO
Info: DIELECTRIC             1
Info: EXCLUDE                SCALED ONE-FOUR
Info: 1-4 ELECTROSTATICS SCALED BY 1
Info: MODIFIED 1-4 VDW PARAMETERS WILL BE USED
Info: DCD FILENAME           current_MD_run_files.dcd
Info: DCD FREQUENCY          10000
Info: DCD FIRST STEP         10000
Info: DCD FILE WILL CONTAIN UNIT CELL DATA
Info: XST FILENAME           current_MD_run_files.xst
Info: XST FREQUENCY          10000
Info: NO VELOCITY DCD OUTPUT
Info: NO FORCE DCD OUTPUT
Info: OUTPUT FILENAME        current_MD_run_files
Info: BINARY OUTPUT FILES WILL BE USED
Info: RESTART FILENAME       current_MD_run_files.restart
Info: RESTART FREQUENCY      50000
Info: BINARY RESTART FILES WILL BE USED
Info: SWITCHING ACTIVE
Info: SWITCHING ON           10
Info: SWITCHING OFF          12
Info: PAIRLIST DISTANCE      14
Info: PAIRLIST SHRINK RATE   0.01
Info: PAIRLIST GROW RATE     0.01
Info: PAIRLIST TRIGGER       0.3
Info: PAIRLISTS PER CYCLE    2
Info: PAIRLISTS ENABLED
Info: MARGIN                 0.99
Info: HYDROGEN GROUP CUTOFF  2.5
Info: PATCH DIMENSION        17.49
Info: ENERGY OUTPUT STEPS    10000
Info: CROSSTERM ENERGY INCLUDED IN DIHEDRAL
Info: TIMING OUTPUT STEPS    10000
Info: PRESSURE OUTPUT STEPS  10000
Info: LANGEVIN DYNAMICS ACTIVE
Info: LANGEVIN TEMPERATURE   310
Info: LANGEVIN DAMPING COEFFICIENT IS 5 INVERSE PS
Info: LANGEVIN DYNAMICS NOT APPLIED TO HYDROGENS
Info: LANGEVIN PISTON PRESSURE CONTROL ACTIVE
Info:        TARGET PRESSURE IS 1.01325 BAR
Info:     OSCILLATION PERIOD IS 100 FS
Info:             DECAY TIME IS 50 FS
Info:     PISTON TEMPERATURE IS 310 K
Info:       PRESSURE CONTROL IS GROUP-BASED
Info:    INITIAL STRAIN RATE IS 0 0 0
Info:       CELL FLUCTUATION IS ANISOTROPIC
Info: PARTICLE MESH EWALD (PME) ACTIVE
Info: PME TOLERANCE               1e-06
Info: PME EWALD COEFFICIENT       0.257952
Info: PME INTERPOLATION ORDER     4
Info: PME GRID DIMENSIONS         48 48 48
Info: PME MAXIMUM GRID SPACING    1
Info: FULL ELECTROSTATIC EVALUATION FREQUENCY      2
Info: USING VERLET I (r-RESPA) MTS SCHEME.
Info: C1 SPLITTING OF LONG RANGE ELECTROSTATICS
Info: PLACING ATOMS IN PATCHES BY HYDROGEN GROUPS
Info: RIGID BONDS TO HYDROGEN : ALL
Info:         ERROR TOLERANCE : 1e-08
Info:          MAX ITERATIONS : 100
Info: RIGID WATER USING SETTLE ALGORITHM
Info: RANDOM NUMBER SEED     1420687057
Info: USE HYDROGEN BONDS?    NO
Info: COORDINATE PDB         ../../InputFiles/example.pdb
Info: STRUCTURE FILE         ../../InputFiles/example.psf
Info: PARAMETER file: CHARMM format!
Info: PARAMETERS             ../../InputFiles/Parameters/par_all27_prot_na.prm
Info: USING ARITHMETIC MEAN TO COMBINE L-J SIGMA PARAMETERS
Info: SUMMARY OF PARAMETERS:
Info: 258 BONDS
Info: 666 ANGLES
Info: 1134 DIHEDRAL
Info: 70 IMPROPER
Info: 6 CROSSTERM
Info: 164 VDW
Info: 0 VDW_PAIRS
Info: 0 NBTHOLE_PAIRS
Info: STRUCTURE SUMMARY:
Info: 10315 ATOMS
Info: 7285 BONDS
Info: 5281 ANGLES
Info: 3293 DIHEDRALS
Info: 204 IMPROPERS
Info: 74 CROSSTERMS
Info: 0 EXCLUSIONS
Info: 9701 RIGID BONDS
Info: 21244 DEGREES OF FREEDOM
Info: 3638 HYDROGEN GROUPS
Info: 4 ATOMS IN LARGEST HYDROGEN GROUP
Info: 3638 MIGRATION GROUPS
Info: 4 ATOMS IN LARGEST MIGRATION GROUP
Info: TOTAL MASS = 63394.1 amu
Info: TOTAL CHARGE = 1.00955e-06 e
Info: MASS DENSITY = 0.951884 g/cm^3
Info: ATOM DENSITY = 0.0932708 atoms/A^3
Info: REMOVING COM VELOCITY -0.00165981 -0.116153 0.0881468
Info: NONBONDED TABLE R-SQUARED SPACING: 0.0625
Info: NONBONDED TABLE SIZE: 769 POINTS
Info: Building spanning tree ... send: 1 recv: 0 with branch factor 9
TCL: Minimizing for 5000 steps
Info: build node-aware spanning tree with send: 1, recv: 0 with branch factor 9
Info: build node-aware spanning tree with send: 1, recv: 0 with branch factor 9
Info: build node-aware spanning tree with send: 1, recv: 0 with branch factor 9
Info: build node-aware spanning tree with send: 1, recv: 0 with branch factor 9
Info: build node-aware spanning tree with send: 1, recv: 0 with branch factor 9
Info: build node-aware spanning tree with send: 1, recv: 0 with branch factor 9
ETITLE: TS BOND ANGLE DIHED IMPRP ELECT VDW BOUNDARY MISC KINETIC TOTAL TEMP POTENTIAL TOTAL3 TEMPAVG PRESSURE GPRESSURE VOLUME PRESSAVG GPRESSAVG
ENERGY: 0 3088.5033 1499.3301 263.8206 10.6933 -30848.5033 336586487.2282 0.0000 0.0000 0.0000 336560501.0722 -0.0000 336560501.0722 336560501.0722 0.0000 846098063.7249 846104120.5607 110592.0000 846098063.7249 846104120.5607
ENERGY: 1000 1417.9992 1095.1038 222.6323 5.8949 -49307.6295 4796.8995 0.0000 0.0000 0.0000 -41769.0998 -0.0000 -41769.0998 -41769.0998 0.0000 -5317.3725 -5356.6564 110592.0000 -5317.3725 -5356.6564
ENERGY: 2000 1465.6156 1107.2927 216.0543 5.7545 -50303.0310 5153.8861 0.0000 0.0000 0.0000 -42354.4278 -0.0000 -42354.4278 -42354.4278 0.0000 -4929.2302 -4928.3606 110592.0000 -4929.2302 -4928.3606
ENERGY: 3000 1484.5024 1113.6337 211.2433 6.2954 -50753.4468 5316.4395 0.0000 0.0000 0.0000 -42621.3325 -0.0000 -42621.3325 -42621.3325 0.0000 -4726.8601 -4729.4724 110592.0000 -4726.8601 -4729.4724
ENERGY: 4000 1495.7379 1118.8012 210.6948 5.8036 -51009.4479 5418.9051 0.0000 0.0000 0.0000 -42759.5054 -0.0000 -42759.5054 -42759.5054 0.0000 -4590.9015 -4587.5519 110592.0000 -4590.9015 -4587.5519
ENERGY: 5000 1500.4359 1118.9645 209.4234 5.9308 -51111.1212 5448.0207 0.0000 0.0000 0.0000 -42828.3459 -0.0000 -42828.3459 -42828.3459 0.0000 -4566.8606 -4570.9652 110592.0000 -4566.8606 -4570.9652
TCL: Running for 50000 steps
Info: build node-aware spanning tree with send: 1, recv: 0 with branch factor 9
Info: build node-aware spanning tree with send: 1, recv: 0 with branch factor 9
Info: build node-aware spanning tree with send: 1, recv: 0 with branch factor 9
Info: build node-aware spanning tree with send: 1, recv: 0 with branch factor 9
Info: build node-aware spanning tree with send: 1, recv: 0 with branch factor 9
Info: build node-aware spanning tree with send: 1, recv: 0 with branch factor 9
Info: build node-aware spanning tree with send: 1, recv: 0 with branch factor 9
Info: build node-aware spanning tree with send: 1, recv: 0 with branch factor 9
Info: build node-aware spanning tree with send: 1, recv: 0 with branch factor 9
Info: build node-aware spanning tree with send: 1, recv: 0 with branch factor 9
Info: build node-aware spanning tree with send: 1, recv: 0 with branch factor 9
Info: build node-aware spanning tree with send: 1, recv: 0 with branch factor 9
ETITLE: TS BOND ANGLE DIHED IMPRP ELECT VDW BOUNDARY MISC KINETIC TOTAL TEMP POTENTIAL TOTAL3 TEMPAVG PRESSURE GPRESSURE VOLUME PRESSAVG GPRESSAVG
ENERGY: 10000 231.2878 663.8350 322.0017 53.8823 -37035.3734 2751.2871 0.0000 0.0000 6500.5852 -26512.4942 307.9687 -33013.0794 -26493.3522 284.6172 131.1671 139.1218 102084.2396 -0.3418 -0.2716
ENERGY: 20000 245.9556 734.4451 301.4875 35.4457 -36926.6962 2680.8881 0.0000 0.0000 6640.9318 -26287.5423 314.6177 -32928.4742 -26258.6559 308.5669 -251.4226 -217.7784 101144.4070 3.4719 3.4428
