Info: SIMULATION PARAMETERS:
Info: TIMESTEP               2
Info: NUMBER OF STEPS        0
Info: STEPS PER CYCLE        10
Info: PERIODIC CELL BASIS 1  48 0 0
Info: PERIODIC CELL BASIS 2  0 48 0
Info: PERIODIC CELL BASIS 3  0 0 48
Info: PERIODIC CELL CENTER   0 0 0
Info: WRAPPING WATERS AROUND PERIODIC BOUNDARIES ON OUTPUT.
Info: WRAPPING ALL CLUSTERS AROUND PERIODIC BOUNDARIES ON OUTPUT.
Info: FIRST LDB TIMESTEP     50
Info: LAST LDB TIMESTEP     -1
Info: HOM BACKGROUND SCALING 1
Info: PME BACKGROUND SCALING 1
Info: MIN ATOMS PER PATCH    40
Info: INITIAL TEMPERATURE    310
Info: CENTER OF MASS MOVING INITIALLY? NO
Info: DIELECTRIC             1
Info: EXCLUDE                SCALED ONE-FOUR
Info: 1-4 ELECTROSTATICS SCALED BY 1
Info: MODIFIED 1-4 VDW PARAMETERS WILL BE USED
Info: DCD FILENAME           current_MD_run_files.dcd
Info: DCD FREQUENCY          25000
Info: DCD FIRST STEP         25000
Info: DCD FILE WILL CONTAIN UNIT CELL DATA
Info: XST FILENAME           current_MD_run_files.xst
Info: XST FREQUENCY          25000
Info: NO VELOCITY DCD OUTPUT
Info: NO FORCE DCD OUTPUT
Info: OUTPUT FILENAME        current_MD_run_files
Info: BINARY OUTPUT FILES WILL BE USED
Info: RESTART FILENAME       current_MD_run_files.restart
Info: RESTART FREQUENCY      500000
Info: BINARY RESTART FILES WILL BE USED
Info: SWITCHING ACTIVE
Info: SWITCHING ON           10
Info: SWITCHING OFF          12
Info: PAIRLIST DISTANCE      14
Info: PAIRLIST SHRINK RATE   0.01
Info: PAIRLIST GROW RATE     0.01
Info: PAIRLIST TRIGGER       0.3
Info: PAIRLISTS PER CYCLE    2
Info: PAIRLISTS ENABLED
Info: MARGIN                 0.99
Info: HYDROGEN GROUP CUTOFF  2.5
Info: PATCH DIMENSION        17.49
Info: ENERGY OUTPUT STEPS    25000
Info: CROSSTERM ENERGY INCLUDED IN DIHEDRAL
Info: TIMING OUTPUT STEPS    25000
Info: PRESSURE OUTPUT STEPS  25000
Info: LANGEVIN DYNAMICS ACTIVE
Info: LANGEVIN TEMPERATURE   310
Info: LANGEVIN USING BBK INTEGRATOR
Info: LANGEVIN DAMPING COEFFICIENT IS 5 INVERSE PS
Info: LANGEVIN DYNAMICS NOT APPLIED TO HYDROGENS
Info: LANGEVIN PISTON PRESSURE CONTROL ACTIVE
Info:        TARGET PRESSURE IS 1.01325 BAR
Info:     OSCILLATION PERIOD IS 100 FS
Info:             DECAY TIME IS 50 FS
Info:     PISTON TEMPERATURE IS 310 K
Info:       PRESSURE CONTROL IS GROUP-BASED
Info:    INITIAL STRAIN RATE IS 0 0 0
Info:       CELL FLUCTUATION IS ANISOTROPIC
Info: PARTICLE MESH EWALD (PME) ACTIVE
Info: PME TOLERANCE               1e-06
Info: PME EWALD COEFFICIENT       0.257952
Info: PME INTERPOLATION ORDER     4
Info: PME GRID DIMENSIONS         48 48 48
Info: PME MAXIMUM GRID SPACING    1
Info: FULL ELECTROSTATIC EVALUATION FREQUENCY      2
Info: USING VERLET I (r-RESPA) MTS SCHEME.
Info: C1 SPLITTING OF LONG RANGE ELECTROSTATICS
Info: PLACING ATOMS IN PATCHES BY HYDROGEN GROUPS
Info: RIGID BONDS TO HYDROGEN : ALL
Info:         ERROR TOLERANCE : 1e-08
Info:          MAX ITERATIONS : 100
Info: RIGID WATER USING SETTLE ALGORITHM
Info: RANDOM NUMBER SEED     1505516776
Info: USE HYDROGEN BONDS?    NO
Info: COORDINATE PDB         ../../InputFiles/example.pdb
Info: STRUCTURE FILE         ../../InputFiles/example.psf
Info: PARAMETER file: CHARMM format!
Info: PARAMETERS             ../../InputFiles/Parameters/par_all27_prot_na.prm
Info: USING ARITHMETIC MEAN TO COMBINE L-J SIGMA PARAMETERS
Info: SUMMARY OF PARAMETERS:
Info: 258 BONDS
Info: 666 ANGLES
Info: 1134 DIHEDRAL
Info: 70 IMPROPER
Info: 6 CROSSTERM
Info: 164 VDW
Info: 0 VDW_PAIRS
Info: 0 NBTHOLE_PAIRS
Info: STRUCTURE SUMMARY:
Info: 10315 ATOMS
Info: 7285 BONDS
Info: 5281 ANGLES
Info: 3293 DIHEDRALS
Info: 204 IMPROPERS
Info: 74 CROSSTERMS
Info: 0 EXCLUSIONS
Info: 9701 RIGID BONDS
Info: 21244 DEGREES OF FREEDOM
Info: 3638 HYDROGEN GROUPS
Info: 4 ATOMS IN LARGEST HYDROGEN GROUP
Info: 3638 MIGRATION GROUPS
Info: 4 ATOMS IN LARGEST MIGRATION GROUP
Info: TOTAL MASS = 63394.1 amu
Info: TOTAL CHARGE = 1.00955e-06 e
Info: MASS DENSITY = 0.951884 g/cm^3
Info: ATOM DENSITY = 0.0932708 atoms/A^3
Info: ADDED 15830 IMPLICIT EXCLUSIONS
Info: NONBONDED TABLE R-SQUARED SPACING: 0.0625
Info: NONBONDED TABLE SIZE: 769 POINTS
Info: REMOVING COM VELOCITY -0.0935594 -0.125623 -0.018761
Info: Updated CUDA force table with 4096 elements.
Info: Updated CUDA LJ table with 164 x 164 elements.
Info: Found 224 unique exclusion lists needing 632 bytes
TCL: Minimizing for 500 steps
ETITLE: TS BOND ANGLE DIHED IMPRP ELECT VDW BOUNDARY MISC KINETIC TOTAL TEMP POTENTIAL TOTAL3 TEMPAVG PRESSURE GPRESSURE VOLUME PRESSAVG GPRESSAVG
ENERGY: 0 269.5993 845.9952 263.7058 10.6900 -29000.3909 783426.9701 0.0000 0.0000 0.0000 755816.5695 0.0000 755816.5695 755816.5695 0.0000 -3760.0298 -22004.9278 110592.0000 -3760.0298 -22004.9278
ENERGY: 100 378.6247 341.0419 271.1056 17.1267 -36681.6046 1787.7856 0.0000 0.0000 0.0000 -33885.9200 0.0000 -33885.9200 -33885.9200 0.0000 -3454.4454 -20673.5158 110592.0000 -3454.4454 -20673.5158
ENERGY: 200 63.6712 226.9193 246.8579 8.6432 -38974.6544 2273.1216 0.0000 0.0000 0.0000 -36155.4412 0.0000 -36155.4412 -36155.4412 0.0000 -3252.3595 -21796.8442 110592.0000 -3252.3595 -21796.8442
ENERGY: 300 94.5741 242.4675 238.0100 10.8627 -40616.9710 2802.0918 0.0000 0.0000 0.0000 -37228.9650 0.0000 -37228.9650 -37228.9650 0.0000 -3254.2886 -22690.8886 110592.0000 -3254.2886 -22690.8886
ENERGY: 400 68.8749 221.8191 231.9386 7.4384 -41198.9285 2841.7539 0.0000 0.0000 0.0000 -37827.1036 0.0000 -37827.1036 -37827.1036 0.0000 -3146.5362 -22922.4566 110592.0000 -3146.5362 -22922.4566
ENERGY: 500 83.0938 244.1500 226.0190 8.6439 -42003.2468 3141.9711 0.0000 0.0000 0.0000 -38299.3688 0.0000 -38299.3688 -38299.3688 0.0000 -2942.6257 -23274.9010 110592.0000 -2942.6257 -23274.9010
TCL: Running for 500000 steps
ETITLE: TS BOND ANGLE DIHED IMPRP ELECT VDW BOUNDARY MISC KINETIC TOTAL TEMP POTENTIAL TOTAL3 TEMPAVG PRESSURE GPRESSURE VOLUME PRESSAVG GPRESSAVG
ENERGY: 25000 237.6110 680.4672 314.5642 45.5501 -36998.9419 2629.1616 0.0000 0.0000 6583.7637 -26507.8241 311.9093 -33091.5878 -26480.4499 304.7329 -385.7670 -339.9731 100634.8773 3.2584 3.1665
ENERGY: 125000 225.9611 719.3325 313.3656 50.3215 -37047.3366 2850.1599 0.0000 0.0000 6503.2815 -26384.9143 308.0964 -32888.1959 -26367.2191 309.7577 702.5445 738.8470 100256.0946 -0.2218 -0.1883
ENERGY: 225000 223.3870 706.9939 293.9199 42.7848 -37065.3578 2847.0134 0.0000 0.0000 6432.0727 -26519.1862 304.7229 -32951.2589 -26495.6218 309.1545 283.3024 309.6688 100553.7967 2.5152 2.5099
ENERGY: 300000 234.6851 713.0483 297.3268 43.7419 -36969.7322 2664.4807 0.0000 0.0000 6490.1799 -26526.2695 307.4757 -33016.4494 -26500.7774 309.0788 -185.0496 -159.1463 101490.3149 2.9756 2.9226
ENERGY: 400000 265.0876 708.6728 303.7058 51.1101 -37059.7224 2707.4000 0.0000 0.0000 6541.7467 -26481.9994 309.9187 -33023.7461 -26451.4688 309.1681 -307.2539 -284.1558 100907.9123 0.7068 0.7645
ENERGY: 500000 224.9004 768.4233 292.8292 45.4313 -37203.5428 2821.1629 0.0000 0.0000 6614.7502 -26436.0455 313.3773 -33050.7957 -26414.6774 309.7196 502.8878 534.1308 100842.5848 3.6469 3.7221
