Info: SIMULATION PARAMETERS:
Info: TIMESTEP               2
Info: NUMBER OF STEPS        0
Info: STEPS PER CYCLE        10
Info: PERIODIC CELL BASIS 1  48 0 0
Info: PERIODIC CELL BASIS 2  0 48 0
Info: PERIODIC CELL BASIS 3  0 0 48
Info: PERIODIC CELL CENTER   0 0 0
Info: WRAPPING WATERS AROUND PERIODIC BOUNDARIES ON OUTPUT.
Info: WRAPPING ALL CLUSTERS AROUND PERIODIC BOUNDARIES ON OUTPUT.
Info: FIRST LDB TIMESTEP     50
Info: LAST LDB TIMESTEP     -1
Info: HOM BACKGROUND SCALING 1
Info: PME BACKGROUND SCALING 1
Info: REMOVING PATCHES FROM PROCESSOR 0
Info: MIN ATOMS PER PATCH    40
Info: INITIAL TEMPERATURE    310
Info: CENTER OF MASS MOVING INITIALLY? NO
Info: DIELECTRIC             1
Info: EXCLUDE                SCALED ONE-FOUR
Info: 1-4 ELECTROSTATICS SCALED BY 1
Info: MODIFIED 1-4 VDW PARAMETERS WILL BE USED
Info: DCD FILENAME           current_MD_run_files.dcd
Info: DCD FREQUENCY          10000
Info: DCD FIRST STEP         10000
Info: DCD FILE WILL CONTAIN UNIT CELL DATA
Info: XST FILENAME           current_MD_run_files.xst
Info: XST FREQUENCY          10000
Info: NO VELOCITY DCD OUTPUT
Info: NO FORCE DCD OUTPUT
Info: OUTPUT FILENAME        current_MD_run_files
Info: BINARY OUTPUT FILES WILL BE USED
Info: RESTART FILENAME       current_MD_run_files.restart
Info: RESTART FREQUENCY      50000
Info: BINARY RESTART FILES WILL BE USED
Info: SWITCHING ACTIVE
Info: SWITCHING ON           10
Info: SWITCHING OFF          12
Info: PAIRLIST DISTANCE      14
Info: PAIRLIST SHRINK RATE   0.01
Info: PAIRLIST GROW RATE     0.01
Info: PAIRLIST TRIGGER       0.3
Info: PAIRLISTS PER CYCLE    2
Info: PAIRLISTS ENABLED
Info: MARGIN                 0.99
Info: HYDROGEN GROUP CUTOFF  2.5
Info: PATCH DIMENSION        17.49
Info: ENERGY OUTPUT STEPS    10000
Info: CROSSTERM ENERGY INCLUDED IN DIHEDRAL
Info: TIMING OUTPUT STEPS    10000
Info: PRESSURE OUTPUT STEPS  10000
Info: LANGEVIN DYNAMICS ACTIVE
Info: LANGEVIN TEMPERATURE   310
Info: LANGEVIN DAMPING COEFFICIENT IS 5 INVERSE PS
Info: LANGEVIN DYNAMICS NOT APPLIED TO HYDROGENS
Info: LANGEVIN PISTON PRESSURE CONTROL ACTIVE
Info:        TARGET PRESSURE IS 1.01325 BAR
Info:     OSCILLATION PERIOD IS 100 FS
Info:             DECAY TIME IS 50 FS
Info:     PISTON TEMPERATURE IS 310 K
Info:       PRESSURE CONTROL IS GROUP-BASED
Info:    INITIAL STRAIN RATE IS 0 0 0
Info:       CELL FLUCTUATION IS ANISOTROPIC
Info: PARTICLE MESH EWALD (PME) ACTIVE
Info: PME TOLERANCE               1e-06
Info: PME EWALD COEFFICIENT       0.257952
Info: PME INTERPOLATION ORDER     4
Info: PME GRID DIMENSIONS         48 48 48
Info: PME MAXIMUM GRID SPACING    1
Info: FULL ELECTROSTATIC EVALUATION FREQUENCY      2
Info: USING VERLET I (r-RESPA) MTS SCHEME.
Info: C1 SPLITTING OF LONG RANGE ELECTROSTATICS
Info: PLACING ATOMS IN PATCHES BY HYDROGEN GROUPS
Info: RIGID BONDS TO HYDROGEN : ALL
Info:         ERROR TOLERANCE : 1e-08
Info:          MAX ITERATIONS : 100
Info: RIGID WATER USING SETTLE ALGORITHM
Info: RANDOM NUMBER SEED     1420687057
Info: USE HYDROGEN BONDS?    NO
Info: COORDINATE PDB         ../../InputFiles/example.pdb
Info: STRUCTURE FILE         ../../InputFiles/example.psf
Info: PARAMETER file: CHARMM format!
Info: PARAMETERS             ../../InputFiles/Parameters/par_all27_prot_na.prm
Info: USING ARITHMETIC MEAN TO COMBINE L-J SIGMA PARAMETERS
Info: SUMMARY OF PARAMETERS:
Info: 258 BONDS
Info: 666 ANGLES
Info: 1134 DIHEDRAL
Info: 70 IMPROPER
Info: 6 CROSSTERM
Info: 164 VDW
Info: 0 VDW_PAIRS
Info: 0 NBTHOLE_PAIRS
Info: STRUCTURE SUMMARY:
Info: 10315 ATOMS
Info: 7285 BONDS
Info: 5281 ANGLES
Info: 3293 DIHEDRALS
Info: 204 IMPROPERS
Info: 74 CROSSTERMS
Info: 0 EXCLUSIONS
Info: 9701 RIGID BONDS
Info: 21244 DEGREES OF FREEDOM
Info: 3638 HYDROGEN GROUPS
Info: 4 ATOMS IN LARGEST HYDROGEN GROUP
Info: 3638 MIGRATION GROUPS
Info: 4 ATOMS IN LARGEST MIGRATION GROUP
Info: TOTAL MASS = 63394.1 amu
Info: TOTAL CHARGE = 1.00955e-06 e
Info: MASS DENSITY = 0.951884 g/cm^3
Info: ATOM DENSITY = 0.0932708 atoms/A^3
Info: REMOVING COM VELOCITY -0.00165981 -0.116153 0.0881468
Info: NONBONDED TABLE R-SQUARED SPACING: 0.0625
Info: NONBONDED TABLE SIZE: 769 POINTS
Info: Building spanning tree ... send: 1 recv: 0 with branch factor 9
TCL: Minimizing for 5000 steps
Info: build node-aware spanning tree with send: 1, recv: 0 with branch factor 9
Info: build node-aware spanning tree with send: 1, recv: 0 with branch factor 9
Info: build node-aware spanning tree with send: 1, recv: 0 with branch factor 9
Info: build node-aware spanning tree with send: 1, recv: 0 with branch factor 9
Info: build node-aware spanning tree with send: 1, recv: 0 with branch factor 9
Info: build node-aware spanning tree with send: 1, recv: 0 with branch factor 9
ETITLE: TS BOND ANGLE DIHED IMPRP ELECT VDW BOUNDARY MISC KINETIC TOTAL TEMP POTENTIAL TOTAL3 TEMPAVG PRESSURE GPRESSURE VOLUME PRESSAVG GPRESSAVG
ENERGY: 0 3088.5033 1499.3301 263.8206 10.6933 -30848.5032 336586487.2282 0.0000 0.0000 0.0000 336560501.0723 -0.0000 336560501.0723 336560501.0723 0.0000 846098063.7249 846104120.5607 110592.0000 846098063.7249 846104120.5607
ENERGY: 1000 1427.3495 1099.0438 222.5218 5.9677 -49333.3446 4800.1128 0.0000 0.0000 0.0000 -41778.3489 -0.0000 -41778.3489 -41778.3489 0.0000 -5402.8135 -5379.5662 110592.0000 -5402.8135 -5379.5662
ENERGY: 2000 1465.7144 1106.9244 215.9466 5.9108 -50319.6734 5164.6801 0.0000 0.0000 0.0000 -42360.4971 -0.0000 -42360.4971 -42360.4971 0.0000 -4884.5615 -4890.2756 110592.0000 -4884.5615 -4890.2756
ENERGY: 3000 1485.2481 1113.6821 211.1892 6.3080 -50752.8780 5313.8966 0.0000 0.0000 0.0000 -42622.5539 -0.0000 -42622.5539 -42622.5539 0.0000 -4743.4323 -4729.0808 110592.0000 -4743.4323 -4729.0808
ENERGY: 4000 1494.6737 1118.1495 210.5008 5.8814 -51002.5255 5415.4504 0.0000 0.0000 0.0000 -42757.8698 -0.0000 -42757.8698 -42757.8698 0.0000 -4582.2779 -4588.4171 110592.0000 -4582.2779 -4588.4171
ENERGY: 5000 1500.2541 1118.4302 209.4524 5.9294 -51104.1023 5445.4967 0.0000 0.0000 0.0000 -42824.5396 -0.0000 -42824.5396 -42824.5396 0.0000 -4568.9931 -4574.0191 110592.0000 -4568.9931 -4574.0191
TCL: Running for 50000 steps
Info: build node-aware spanning tree with send: 1, recv: 0 with branch factor 9
Info: build node-aware spanning tree with send: 1, recv: 0 with branch factor 9
Info: build node-aware spanning tree with send: 1, recv: 0 with branch factor 9
Info: build node-aware spanning tree with send: 1, recv: 0 with branch factor 9
Info: build node-aware spanning tree with send: 1, recv: 0 with branch factor 9
Info: build node-aware spanning tree with send: 1, recv: 0 with branch factor 9
Info: build node-aware spanning tree with send: 1, recv: 0 with branch factor 9
Info: build node-aware spanning tree with send: 1, recv: 0 with branch factor 9
Info: build node-aware spanning tree with send: 1, recv: 0 with branch factor 9
Info: build node-aware spanning tree with send: 1, recv: 0 with branch factor 9
Info: build node-aware spanning tree with send: 1, recv: 0 with branch factor 9
Info: build node-aware spanning tree with send: 1, recv: 0 with branch factor 9
ETITLE: TS BOND ANGLE DIHED IMPRP ELECT VDW BOUNDARY MISC KINETIC TOTAL TEMP POTENTIAL TOTAL3 TEMPAVG PRESSURE GPRESSURE VOLUME PRESSAVG GPRESSAVG
ENERGY: 10000 234.4558 680.4187 299.2324 39.8982 -36738.1696 2622.6357 0.0000 0.0000 6439.8676 -26421.6611 305.0921 -32861.5288 -26403.4551 285.8590 -450.8061 -430.3604 102429.6069 0.2442 0.1629
ENERGY: 20000 230.5966 737.0584 319.8485 44.1708 -36866.6713 2669.9312 0.0000 0.0000 6523.5779 -26341.4877 309.0580 -32865.0657 -26315.7966 308.4787 -160.2869 -140.0108 101328.9425 3.0384 3.1812
