Info: SIMULATION PARAMETERS:
Info: TIMESTEP               2
Info: NUMBER OF STEPS        0
Info: STEPS PER CYCLE        10
Info: PERIODIC CELL BASIS 1  48 0 0
Info: PERIODIC CELL BASIS 2  0 48 0
Info: PERIODIC CELL BASIS 3  0 0 48
Info: PERIODIC CELL CENTER   0 0 0
Info: WRAPPING WATERS AROUND PERIODIC BOUNDARIES ON OUTPUT.
Info: WRAPPING ALL CLUSTERS AROUND PERIODIC BOUNDARIES ON OUTPUT.
Info: FIRST LDB TIMESTEP     50
Info: LAST LDB TIMESTEP     -1
Info: HOM BACKGROUND SCALING 1
Info: PME BACKGROUND SCALING 1
Info: REMOVING PATCHES FROM PROCESSOR 0
Info: MIN ATOMS PER PATCH    40
Info: INITIAL TEMPERATURE    310
Info: CENTER OF MASS MOVING INITIALLY? NO
Info: DIELECTRIC             1
Info: EXCLUDE                SCALED ONE-FOUR
Info: 1-4 ELECTROSTATICS SCALED BY 1
Info: MODIFIED 1-4 VDW PARAMETERS WILL BE USED
Info: DCD FILENAME           current_MD_run_files.dcd
Info: DCD FREQUENCY          10000
Info: DCD FIRST STEP         10000
Info: DCD FILE WILL CONTAIN UNIT CELL DATA
Info: XST FILENAME           current_MD_run_files.xst
Info: XST FREQUENCY          10000
Info: NO VELOCITY DCD OUTPUT
Info: NO FORCE DCD OUTPUT
Info: OUTPUT FILENAME        current_MD_run_files
Info: BINARY OUTPUT FILES WILL BE USED
Info: RESTART FILENAME       current_MD_run_files.restart
Info: RESTART FREQUENCY      50000
Info: BINARY RESTART FILES WILL BE USED
Info: SWITCHING ACTIVE
Info: SWITCHING ON           10
Info: SWITCHING OFF          12
Info: PAIRLIST DISTANCE      14
Info: PAIRLIST SHRINK RATE   0.01
Info: PAIRLIST GROW RATE     0.01
Info: PAIRLIST TRIGGER       0.3
Info: PAIRLISTS PER CYCLE    2
Info: PAIRLISTS ENABLED
Info: MARGIN                 0.99
Info: HYDROGEN GROUP CUTOFF  2.5
Info: PATCH DIMENSION        17.49
Info: ENERGY OUTPUT STEPS    10000
Info: CROSSTERM ENERGY INCLUDED IN DIHEDRAL
Info: TIMING OUTPUT STEPS    10000
Info: PRESSURE OUTPUT STEPS  10000
Info: LANGEVIN DYNAMICS ACTIVE
Info: LANGEVIN TEMPERATURE   310
Info: LANGEVIN DAMPING COEFFICIENT IS 5 INVERSE PS
Info: LANGEVIN DYNAMICS NOT APPLIED TO HYDROGENS
Info: LANGEVIN PISTON PRESSURE CONTROL ACTIVE
Info:        TARGET PRESSURE IS 1.01325 BAR
Info:     OSCILLATION PERIOD IS 100 FS
Info:             DECAY TIME IS 50 FS
Info:     PISTON TEMPERATURE IS 310 K
Info:       PRESSURE CONTROL IS GROUP-BASED
Info:    INITIAL STRAIN RATE IS 0 0 0
Info:       CELL FLUCTUATION IS ANISOTROPIC
Info: PARTICLE MESH EWALD (PME) ACTIVE
Info: PME TOLERANCE               1e-06
Info: PME EWALD COEFFICIENT       0.257952
Info: PME INTERPOLATION ORDER     4
Info: PME GRID DIMENSIONS         48 48 48
Info: PME MAXIMUM GRID SPACING    1
Info: FULL ELECTROSTATIC EVALUATION FREQUENCY      2
Info: USING VERLET I (r-RESPA) MTS SCHEME.
Info: C1 SPLITTING OF LONG RANGE ELECTROSTATICS
Info: PLACING ATOMS IN PATCHES BY HYDROGEN GROUPS
Info: RIGID BONDS TO HYDROGEN : ALL
Info:         ERROR TOLERANCE : 1e-08
Info:          MAX ITERATIONS : 100
Info: RIGID WATER USING SETTLE ALGORITHM
Info: RANDOM NUMBER SEED     1420687057
Info: USE HYDROGEN BONDS?    NO
Info: COORDINATE PDB         ../../InputFiles/example.pdb
Info: STRUCTURE FILE         ../../InputFiles/example.psf
Info: PARAMETER file: CHARMM format!
Info: PARAMETERS             ../../InputFiles/Parameters/par_all27_prot_na.prm
Info: USING ARITHMETIC MEAN TO COMBINE L-J SIGMA PARAMETERS
Info: SUMMARY OF PARAMETERS:
Info: 258 BONDS
Info: 666 ANGLES
Info: 1134 DIHEDRAL
Info: 70 IMPROPER
Info: 6 CROSSTERM
Info: 164 VDW
Info: 0 VDW_PAIRS
Info: 0 NBTHOLE_PAIRS
Info: STRUCTURE SUMMARY:
Info: 10315 ATOMS
Info: 7285 BONDS
Info: 5281 ANGLES
Info: 3293 DIHEDRALS
Info: 204 IMPROPERS
Info: 74 CROSSTERMS
Info: 0 EXCLUSIONS
Info: 9701 RIGID BONDS
Info: 21244 DEGREES OF FREEDOM
Info: 3638 HYDROGEN GROUPS
Info: 4 ATOMS IN LARGEST HYDROGEN GROUP
Info: 3638 MIGRATION GROUPS
Info: 4 ATOMS IN LARGEST MIGRATION GROUP
Info: TOTAL MASS = 63394.1 amu
Info: TOTAL CHARGE = 1.00955e-06 e
Info: MASS DENSITY = 0.951884 g/cm^3
Info: ATOM DENSITY = 0.0932708 atoms/A^3
Info: REMOVING COM VELOCITY -0.00165981 -0.116153 0.0881468
Info: NONBONDED TABLE R-SQUARED SPACING: 0.0625
Info: NONBONDED TABLE SIZE: 769 POINTS
Info: Building spanning tree ... send: 1 recv: 0 with branch factor 9
TCL: Minimizing for 5000 steps
Info: build node-aware spanning tree with send: 1, recv: 0 with branch factor 9
Info: build node-aware spanning tree with send: 1, recv: 0 with branch factor 9
Info: build node-aware spanning tree with send: 1, recv: 0 with branch factor 9
Info: build node-aware spanning tree with send: 1, recv: 0 with branch factor 9
Info: build node-aware spanning tree with send: 1, recv: 0 with branch factor 9
Info: build node-aware spanning tree with send: 1, recv: 0 with branch factor 9
ETITLE: TS BOND ANGLE DIHED IMPRP ELECT VDW BOUNDARY MISC KINETIC TOTAL TEMP POTENTIAL TOTAL3 TEMPAVG PRESSURE GPRESSURE VOLUME PRESSAVG GPRESSAVG
ENERGY: 0 3088.5033 1499.3301 263.8206 10.6933 -30848.5033 336586487.2282 0.0000 0.0000 0.0000 336560501.0723 -0.0000 336560501.0723 336560501.0723 0.0000 846098063.7249 846104120.5607 110592.0000 846098063.7249 846104120.5607
ENERGY: 1000 1438.8459 1101.8603 222.4359 6.1571 -49344.3596 4802.7069 0.0000 0.0000 0.0000 -41772.3535 -0.0000 -41772.3535 -41772.3535 0.0000 -5436.6611 -5399.1409 110592.0000 -5436.6611 -5399.1409
ENERGY: 2000 1466.1927 1107.3093 216.0925 5.7657 -50310.4829 5158.1732 0.0000 0.0000 0.0000 -42356.9496 -0.0000 -42356.9496 -42356.9496 0.0000 -4914.5274 -4912.0255 110592.0000 -4914.5274 -4912.0255
ENERGY: 3000 1482.8592 1113.7076 211.2919 6.2483 -50752.0160 5317.3307 0.0000 0.0000 0.0000 -42620.5782 -0.0000 -42620.5782 -42620.5782 0.0000 -4714.8178 -4723.4762 110592.0000 -4714.8178 -4723.4762
ENERGY: 4000 1496.5907 1121.1321 210.5621 5.9620 -51008.0161 5414.7431 0.0000 0.0000 0.0000 -42759.0261 -0.0000 -42759.0261 -42759.0261 0.0000 -4605.1367 -4599.1578 110592.0000 -4605.1367 -4599.1578
ENERGY: 5000 1501.5521 1118.0923 209.0124 5.8521 -51121.6354 5463.2735 0.0000 0.0000 0.0000 -42823.8531 -0.0000 -42823.8531 -42823.8531 0.0000 -4545.8636 -4541.7496 110592.0000 -4545.8636 -4541.7496
TCL: Running for 50000 steps
Info: build node-aware spanning tree with send: 1, recv: 0 with branch factor 9
Info: build node-aware spanning tree with send: 1, recv: 0 with branch factor 9
Info: build node-aware spanning tree with send: 1, recv: 0 with branch factor 9
Info: build node-aware spanning tree with send: 1, recv: 0 with branch factor 9
Info: build node-aware spanning tree with send: 1, recv: 0 with branch factor 9
Info: build node-aware spanning tree with send: 1, recv: 0 with branch factor 9
Info: build node-aware spanning tree with send: 1, recv: 0 with branch factor 9
Info: build node-aware spanning tree with send: 1, recv: 0 with branch factor 9
Info: build node-aware spanning tree with send: 1, recv: 0 with branch factor 9
Info: build node-aware spanning tree with send: 1, recv: 0 with branch factor 9
Info: build node-aware spanning tree with send: 1, recv: 0 with branch factor 9
Info: build node-aware spanning tree with send: 1, recv: 0 with branch factor 9
ETITLE: TS BOND ANGLE DIHED IMPRP ELECT VDW BOUNDARY MISC KINETIC TOTAL TEMP POTENTIAL TOTAL3 TEMPAVG PRESSURE GPRESSURE VOLUME PRESSAVG GPRESSAVG
ENERGY: 10000 237.8045 710.7776 315.2225 38.8269 -36921.1398 2723.7174 0.0000 0.0000 6493.2501 -26401.5409 307.6212 -32894.7910 -26379.4074 285.9479 -273.2015 -252.1053 101236.7297 -0.0654 -0.1890
ENERGY: 20000 243.6545 691.8433 303.5944 53.4294 -36888.4588 2691.3089 0.0000 0.0000 6592.9460 -26311.6823 312.3443 -32904.6283 -26286.3567 309.2948 -208.3821 -167.8025 100802.0197 3.3080 3.3025
